CPD_2
  Mrv1822 09091914012D          

 26 28  0  0  0  0            999 V2000
    2.1434   -2.8875    0.0000 C   0  0  0  0  0  0  0  0  0  0  0  0
    1.4289   -2.4750    0.0000 C   0  0  0  0  0  0  0  0  0  0  0  0
    1.4289   -1.6500    0.0000 C   0  0  0  0  0  0  0  0  0  0  0  0
    0.7145   -1.2375    0.0000 N   0  0  0  0  0  0  0  0  0  0  0  0
    0.0000   -1.6500    0.0000 C   0  0  0  0  0  0  0  0  0  0  0  0
    0.0000   -2.4750    0.0000 C   0  0  0  0  0  0  0  0  0  0  0  0
   -0.7145   -2.8875    0.0000 C   0  0  0  0  0  0  0  0  0  0  0  0
   -1.4289   -2.4750    0.0000 C   0  0  0  0  0  0  0  0  0  0  0  0
   -2.1434   -2.8875    0.0000 C   0  0  0  0  0  0  0  0  0  0  0  0
   -2.8579   -2.4750    0.0000 C   0  0  0  0  0  0  0  0  0  0  0  0
   -1.4289   -1.6500    0.0000 C   0  0  0  0  0  0  0  0  0  0  0  0
   -0.7145   -1.2375    0.0000 C   0  0  0  0  0  0  0  0  0  0  0  0
    0.7145   -0.4125    0.0000 S   0  0  0  0  0  0  0  0  0  0  0  0
    1.5395   -0.4125    0.0000 C   0  0  0  0  0  0  0  0  0  0  0  0
   -0.1105   -0.4125    0.0000 O   0  0  0  0  0  0  0  0  0  0  0  0
    0.7145    0.4125    0.0000 O   0  0  0  0  0  0  0  0  0  0  0  0
    2.1434   -1.2375    0.0000 C   0  0  0  0  0  0  0  0  0  0  0  0
    2.1434   -0.4125    0.0000 O   0  0  0  0  0  0  0  0  0  0  0  0
    2.8579   -1.6500    0.0000 N   0  0  0  0  0  0  0  0  0  0  0  0
    3.6548   -1.4365    0.0000 C   0  0  0  0  0  0  0  0  0  0  0  0
    3.8683   -2.2334    0.0000 C   0  0  0  0  0  0  0  0  0  0  0  0
    4.6652   -2.0198    0.0000 O   0  0  0  0  0  0  0  0  0  0  0  0
    3.0714   -2.4469    0.0000 C   0  0  0  0  0  0  0  0  0  0  0  0
    4.0818   -3.0303    0.0000 C   0  0  0  0  0  0  0  0  0  0  0  0
    4.6652   -3.6136    0.0000 C   0  0  0  0  0  0  0  0  0  0  0  0
    3.8683   -3.8271    0.0000 C   0  0  0  0  0  0  0  0  0  0  0  0
  1  2  1  0  0  0  0
  2  3  1  0  0  0  0
  3  4  1  0  0  0  0
  4  5  1  0  0  0  0
  5  6  2  0  0  0  0
  6  7  1  0  0  0  0
  7  8  2  0  0  0  0
  8  9  1  0  0  0  0
  9 10  1  0  0  0  0
  8 11  1  0  0  0  0
 11 12  2  0  0  0  0
  5 12  1  0  0  0  0
  4 13  1  0  0  0  0
 13 14  1  0  0  0  0
 13 15  2  0  0  0  0
 13 16  2  0  0  0  0
  3 17  1  0  0  0  0
 17 18  2  0  0  0  0
 17 19  1  0  0  0  0
 19 20  1  0  0  0  0
 20 21  1  0  0  0  0
 21 22  1  0  0  0  0
 21 23  1  0  0  0  0
 19 23  1  0  0  0  0
 21 24  1  0  0  0  0
 24 25  1  0  0  0  0
 25 26  1  0  0  0  0
 24 26  1  0  0  0  0
M  END
> <ID>
CPD_2

$$$$
CPD_7
  Mrv1822 09091914012D          

 21 24  0  0  0  0            999 V2000
   -0.1641   -4.9509    0.0000 O   0  0  0  0  0  0  0  0  0  0  0  0
   -0.5387   -4.2158    0.0000 C   0  0  0  0  0  0  0  0  0  0  0  0
   -0.9132   -3.4807    0.0000 C   0  0  0  0  0  0  0  0  0  0  0  0
   -0.1781   -3.1062    0.0000 N   0  0  0  0  0  0  0  0  0  0  0  0
    0.1964   -3.8412    0.0000 C   0  0  0  0  0  0  0  0  0  0  0  0
    0.0768   -2.3215    0.0000 C   0  0  0  0  0  0  0  0  0  0  0  0
   -0.4752   -1.7084    0.0000 O   0  0  0  0  0  0  0  0  0  0  0  0
    0.8838   -2.1500    0.0000 C   0  0  0  0  0  0  0  0  0  0  0  0
    1.1387   -1.3654    0.0000 N   0  0  0  0  0  0  0  0  0  0  0  0
    0.6538   -0.6979    0.0000 C   0  0  0  0  0  0  0  0  0  0  0  0
    1.1387   -0.0305    0.0000 C   0  0  0  0  0  0  0  0  0  0  0  0
    1.9233   -0.2854    0.0000 C   0  0  0  0  0  0  0  0  0  0  0  0
    2.6378    0.1271    0.0000 C   0  0  0  0  0  0  0  0  0  0  0  0
    2.6378    0.9521    0.0000 F   0  0  0  0  0  0  0  0  0  0  0  0
    3.3523   -0.2854    0.0000 C   0  0  0  0  0  0  0  0  0  0  0  0
    3.3523   -1.1104    0.0000 C   0  0  0  0  0  0  0  0  0  0  0  0
    2.6378   -1.5229    0.0000 C   0  0  0  0  0  0  0  0  0  0  0  0
    1.9233   -1.1104    0.0000 C   0  0  0  0  0  0  0  0  0  0  0  0
   -1.2737   -4.5903    0.0000 C   0  0  0  0  0  0  0  0  0  0  0  0
   -1.7231   -5.2822    0.0000 C   0  0  0  0  0  0  0  0  0  0  0  0
   -2.0976   -4.5471    0.0000 C   0  0  0  0  0  0  0  0  0  0  0  0
  1  2  1  0  0  0  0
  2  3  1  0  0  0  0
  3  4  1  0  0  0  0
  4  5  1  0  0  0  0
  2  5  1  0  0  0  0
  4  6  1  0  0  0  0
  6  7  2  0  0  0  0
  6  8  1  0  0  0  0
  8  9  1  0  0  0  0
  9 10  1  0  0  0  0
 10 11  2  0  0  0  0
 11 12  1  0  0  0  0
 12 13  2  0  0  0  0
 13 14  1  0  0  0  0
 13 15  1  0  0  0  0
 15 16  2  0  0  0  0
 16 17  1  0  0  0  0
 17 18  2  0  0  0  0
  9 18  1  0  0  0  0
 12 18  1  0  0  0  0
  2 19  1  0  0  0  0
 19 20  1  0  0  0  0
 20 21  1  0  0  0  0
 19 21  1  0  0  0  0
M  END
> <ID>
CPD_7

$$$$
CPD_12
  Mrv1822 09091914012D          

 31 34  0  0  0  0            999 V2000
   -6.7557   -5.8880    0.0000 C   0  0  0  0  0  0  0  0  0  0  0  0
   -6.5422   -5.0911    0.0000 O   0  0  0  0  0  0  0  0  0  0  0  0
   -7.1255   -4.5077    0.0000 C   0  0  0  0  0  0  0  0  0  0  0  0
   -7.9224   -4.7212    0.0000 O   0  0  0  0  0  0  0  0  0  0  0  0
   -6.9120   -3.7108    0.0000 C   0  0  0  0  0  0  0  0  0  0  0  0
   -7.4954   -3.1275    0.0000 C   0  0  0  0  0  0  0  0  0  0  0  0
   -7.2818   -2.3306    0.0000 C   0  0  0  0  0  0  0  0  0  0  0  0
   -7.8652   -1.7472    0.0000 N   0  0  0  0  0  0  0  0  0  0  0  0
   -8.6621   -1.9607    0.0000 S   0  0  0  0  0  0  0  0  0  0  0  0
   -8.4486   -2.7576    0.0000 O   0  0  0  0  0  0  0  0  0  0  0  0
   -8.8756   -1.1638    0.0000 O   0  0  0  0  0  0  0  0  0  0  0  0
   -9.4590   -2.1743    0.0000 C   0  0  0  0  0  0  0  0  0  0  0  0
   -9.6725   -2.9711    0.0000 C   0  0  0  0  0  0  0  0  0  0  0  0
  -10.4694   -3.1847    0.0000 C   0  0  0  0  0  0  0  0  0  0  0  0
  -11.0528   -2.6013    0.0000 C   0  0  0  0  0  0  0  0  0  0  0  0
  -11.8496   -2.8148    0.0000 F   0  0  0  0  0  0  0  0  0  0  0  0
  -10.8392   -1.8044    0.0000 C   0  0  0  0  0  0  0  0  0  0  0  0
  -10.0423   -1.5909    0.0000 C   0  0  0  0  0  0  0  0  0  0  0  0
   -6.4849   -2.1170    0.0000 C   0  0  0  0  0  0  0  0  0  0  0  0
   -5.9016   -2.7004    0.0000 C   0  0  0  0  0  0  0  0  0  0  0  0
   -6.1151   -3.4973    0.0000 C   0  0  0  0  0  0  0  0  0  0  0  0
   -5.1047   -2.4869    0.0000 C   0  0  0  0  0  0  0  0  0  0  0  0
   -4.8912   -1.6900    0.0000 O   0  0  0  0  0  0  0  0  0  0  0  0
   -4.5213   -3.0702    0.0000 N   0  0  0  0  0  0  0  0  0  0  0  0
   -3.6963   -3.0702    0.0000 C   0  0  0  0  0  0  0  0  0  0  0  0
   -3.6963   -3.8952    0.0000 C   0  0  0  0  0  0  0  0  0  0  0  0
   -2.8713   -3.8952    0.0000 O   0  0  0  0  0  0  0  0  0  0  0  0
   -4.5213   -3.8952    0.0000 C   0  0  0  0  0  0  0  0  0  0  0  0
   -3.6963   -4.7202    0.0000 C   0  0  0  0  0  0  0  0  0  0  0  0
   -3.2838   -5.4347    0.0000 C   0  0  0  0  0  0  0  0  0  0  0  0
   -4.1088   -5.4347    0.0000 C   0  0  0  0  0  0  0  0  0  0  0  0
  1  2  1  0  0  0  0
  2  3  1  0  0  0  0
  3  4  2  0  0  0  0
  3  5  1  0  0  0  0
  5  6  2  0  0  0  0
  6  7  1  0  0  0  0
  7  8  1  0  0  0  0
  8  9  1  0  0  0  0
  9 10  2  0  0  0  0
  9 11  2  0  0  0  0
  9 12  1  0  0  0  0
 12 13  2  0  0  0  0
 13 14  1  0  0  0  0
 14 15  2  0  0  0  0
 15 16  1  0  0  0  0
 15 17  1  0  0  0  0
 17 18  2  0  0  0  0
 12 18  1  0  0  0  0
  7 19  2  0  0  0  0
 19 20  1  0  0  0  0
 20 21  2  0  0  0  0
  5 21  1  0  0  0  0
 20 22  1  0  0  0  0
 22 23  2  0  0  0  0
 22 24  1  0  0  0  0
 24 25  1  0  0  0  0
 25 26  1  0  0  0  0
 26 27  1  0  0  0  0
 26 28  1  0  0  0  0
 24 28  1  0  0  0  0
 26 29  1  0  0  0  0
 29 30  1  0  0  0  0
 30 31  1  0  0  0  0
 29 31  1  0  0  0  0
M  END
> <ID>
CPD_12

$$$$
CPD_17
  Mrv1822 09091914012D          

 26 28  0  0  0  0            999 V2000
   -4.1970    4.9804    0.0000 C   0  0  0  0  0  0  0  0  0  0  0  0
   -4.1251    4.1586    0.0000 C   0  0  0  0  0  0  0  0  0  0  0  0
   -4.8009    3.6854    0.0000 C   0  0  0  0  0  0  0  0  0  0  0  0
   -4.7290    2.8635    0.0000 C   0  0  0  0  0  0  0  0  0  0  0  0
   -4.3803    2.1158    0.0000 C   0  0  0  0  0  0  0  0  0  0  0  0
   -4.8535    1.4400    0.0000 C   0  0  0  0  0  0  0  0  0  0  0  0
   -5.6754    1.5119    0.0000 C   0  0  0  0  0  0  0  0  0  0  0  0
   -6.0240    2.2596    0.0000 C   0  0  0  0  0  0  0  0  0  0  0  0
   -5.5508    2.9354    0.0000 N   0  0  0  0  0  0  0  0  0  0  0  0
   -5.8995    3.6831    0.0000 C   0  0  0  0  0  0  0  0  0  0  0  0
   -5.4263    4.3589    0.0000 O   0  0  0  0  0  0  0  0  0  0  0  0
   -6.7213    3.7550    0.0000 O   0  0  0  0  0  0  0  0  0  0  0  0
   -7.0700    4.5027    0.0000 C   0  0  0  0  0  0  0  0  0  0  0  0
   -7.4187    5.2504    0.0000 C   0  0  0  0  0  0  0  0  0  0  0  0
   -7.8177    4.1541    0.0000 C   0  0  0  0  0  0  0  0  0  0  0  0
   -6.3223    4.8514    0.0000 C   0  0  0  0  0  0  0  0  0  0  0  0
   -3.9321    3.0770    0.0000 C   0  0  0  0  0  0  0  0  0  0  0  0
   -3.7185    3.8739    0.0000 O   0  0  0  0  0  0  0  0  0  0  0  0
   -3.3487    2.4937    0.0000 N   0  0  0  0  0  0  0  0  0  0  0  0
   -2.5237    2.4937    0.0000 C   0  0  0  0  0  0  0  0  0  0  0  0
   -2.5237    1.6687    0.0000 C   0  0  0  0  0  0  0  0  0  0  0  0
   -1.6987    1.6687    0.0000 O   0  0  0  0  0  0  0  0  0  0  0  0
   -3.3487    1.6687    0.0000 C   0  0  0  0  0  0  0  0  0  0  0  0
   -2.5237    0.8437    0.0000 C   0  0  0  0  0  0  0  0  0  0  0  0
   -2.1112    0.1292    0.0000 C   0  0  0  0  0  0  0  0  0  0  0  0
   -2.9362    0.1292    0.0000 C   0  0  0  0  0  0  0  0  0  0  0  0
  1  2  1  0  0  0  0
  2  3  1  0  0  0  0
  3  4  1  0  0  0  0
  4  5  1  0  0  0  0
  5  6  1  0  0  0  0
  6  7  1  0  0  0  0
  7  8  1  0  0  0  0
  8  9  1  0  0  0  0
  4  9  1  0  0  0  0
  9 10  1  0  0  0  0
 10 11  2  0  0  0  0
 10 12  1  0  0  0  0
 12 13  1  0  0  0  0
 13 14  1  0  0  0  0
 13 15  1  0  0  0  0
 13 16  1  0  0  0  0
  4 17  1  0  0  0  0
 17 18  2  0  0  0  0
 17 19  1  0  0  0  0
 19 20  1  0  0  0  0
 20 21  1  0  0  0  0
 21 22  1  0  0  0  0
 21 23  1  0  0  0  0
 19 23  1  0  0  0  0
 21 24  1  0  0  0  0
 24 25  1  0  0  0  0
 25 26  1  0  0  0  0
 24 26  1  0  0  0  0
M  END
> <ID>
CPD_17

$$$$
CPD_22
  Mrv1822 09091914012D          

 21 22  0  0  0  0            999 V2000
    2.5559   -4.4270    0.0000 C   0  0  0  0  0  0  0  0  0  0  0  0
    3.2704   -4.8395    0.0000 N   0  0  0  0  0  0  0  0  0  0  0  0
    3.9849   -4.4270    0.0000 C   0  0  0  0  0  0  0  0  0  0  0  0
    3.9849   -3.6020    0.0000 O   0  0  0  0  0  0  0  0  0  0  0  0
    4.6993   -4.8395    0.0000 C   0  0  0  0  0  0  0  0  0  0  0  0
    4.6993   -5.6645    0.0000 C   0  0  0  0  0  0  0  0  0  0  0  0
    5.4138   -4.4270    0.0000 N   0  0  0  0  0  0  0  0  0  0  0  0
    6.1283   -4.8395    0.0000 C   0  0  0  0  0  0  0  0  0  0  0  0
    6.1283   -5.6645    0.0000 O   0  0  0  0  0  0  0  0  0  0  0  0
    6.8427   -4.4270    0.0000 C   0  0  0  0  0  0  0  0  0  0  0  0
    7.2552   -3.7125    0.0000 C   0  0  0  0  0  0  0  0  0  0  0  0
    7.6677   -4.4270    0.0000 C   0  0  0  0  0  0  0  0  0  0  0  0
    8.3822   -4.8395    0.0000 C   0  0  0  0  0  0  0  0  0  0  0  0
    9.0967   -4.4270    0.0000 C   0  0  0  0  0  0  0  0  0  0  0  0
    9.8112   -4.8395    0.0000 C   0  0  0  0  0  0  0  0  0  0  0  0
    9.8112   -5.6645    0.0000 C   0  0  0  0  0  0  0  0  0  0  0  0
    9.0967   -6.0770    0.0000 C   0  0  0  0  0  0  0  0  0  0  0  0
    8.3822   -5.6645    0.0000 C   0  0  0  0  0  0  0  0  0  0  0  0
   10.5256   -6.0770    0.0000 C   0  0  0  0  0  0  0  0  0  0  0  0
   11.2401   -5.6645    0.0000 O   0  0  0  0  0  0  0  0  0  0  0  0
   10.5256   -6.9020    0.0000 O   0  0  0  0  0  0  0  0  0  0  0  0
  1  2  1  0  0  0  0
  2  3  1  0  0  0  0
  3  4  2  0  0  0  0
  3  5  1  0  0  0  0
  5  6  1  0  0  0  0
  5  7  1  0  0  0  0
  7  8  1  0  0  0  0
  8  9  2  0  0  0  0
  8 10  1  0  0  0  0
 10 11  1  0  0  0  0
 11 12  1  0  0  0  0
 10 12  1  0  0  0  0
 12 13  1  0  0  0  0
 13 14  2  0  0  0  0
 14 15  1  0  0  0  0
 15 16  2  0  0  0  0
 16 17  1  0  0  0  0
 17 18  2  0  0  0  0
 13 18  1  0  0  0  0
 16 19  1  0  0  0  0
 19 20  1  0  0  0  0
 19 21  2  0  0  0  0
M  END
> <ID>
CPD_22

$$$$
CPD_27
  Mrv1822 09091914012D          

 21 21  0  0  0  0            999 V2000
    1.0632   -0.3020    0.0000 C   0  0  0  0  0  0  0  0  0  0  0  0
    1.3333   -1.0816    0.0000 C   0  0  0  0  0  0  0  0  0  0  0  0
    2.1434   -1.2375    0.0000 C   0  0  0  0  0  0  0  0  0  0  0  0
    2.4135   -2.0171    0.0000 C   0  0  0  0  0  0  0  0  0  0  0  0
    3.2236   -2.1730    0.0000 C   0  0  0  0  0  0  0  0  0  0  0  0
    3.4936   -2.9525    0.0000 O   0  0  0  0  0  0  0  0  0  0  0  0
    3.7637   -1.5493    0.0000 N   0  0  0  0  0  0  0  0  0  0  0  0
    4.5738   -1.7052    0.0000 C   0  0  0  0  0  0  0  0  0  0  0  0
    4.8439   -2.4848    0.0000 C   0  0  0  0  0  0  0  0  0  0  0  0
    5.1139   -1.0816    0.0000 C   0  0  0  0  0  0  0  0  0  0  0  0
    4.8439   -0.3020    0.0000 O   0  0  0  0  0  0  0  0  0  0  0  0
    5.9240   -1.2375    0.0000 N   0  0  0  0  0  0  0  0  0  0  0  0
    6.4641   -0.6139    0.0000 C   0  0  0  0  0  0  0  0  0  0  0  0
    1.8734   -2.6407    0.0000 C   0  0  0  0  0  0  0  0  0  0  0  0
    2.1434   -3.4202    0.0000 O   0  0  0  0  0  0  0  0  0  0  0  0
    1.0632   -2.4848    0.0000 C   0  0  0  0  0  0  0  0  0  0  0  0
    0.5231   -3.1084    0.0000 C   0  0  0  0  0  0  0  0  0  0  0  0
   -0.2870   -2.9525    0.0000 C   0  0  0  0  0  0  0  0  0  0  0  0
   -0.5570   -2.1730    0.0000 C   0  0  0  0  0  0  0  0  0  0  0  0
   -0.0169   -1.5493    0.0000 C   0  0  0  0  0  0  0  0  0  0  0  0
    0.7932   -1.7052    0.0000 C   0  0  0  0  0  0  0  0  0  0  0  0
  1  2  1  0  0  0  0
  2  3  1  0  0  0  0
  3  4  1  0  0  0  0
  4  5  1  0  0  0  0
  5  6  2  0  0  0  0
  5  7  1  0  0  0  0
  7  8  1  0  0  0  0
  8  9  1  0  0  0  0
  8 10  1  0  0  0  0
 10 11  2  0  0  0  0
 10 12  1  0  0  0  0
 12 13  1  0  0  0  0
  4 14  1  0  0  0  0
 14 15  2  0  0  0  0
 14 16  1  0  0  0  0
 16 17  2  0  0  0  0
 17 18  1  0  0  0  0
 18 19  2  0  0  0  0
 19 20  1  0  0  0  0
 20 21  2  0  0  0  0
 16 21  1  0  0  0  0
M  END
> <ID>
CPD_27

$$$$
CPD_32
  Mrv1822 09091914012D          

 28 30  0  0  0  0            999 V2000
   -5.0013   -1.2375    0.0000 C   0  0  0  0  0  0  0  0  0  0  0  0
   -4.2868   -1.6500    0.0000 N   0  0  0  0  0  0  0  0  0  0  0  0
   -3.5724   -1.2375    0.0000 C   0  0  0  0  0  0  0  0  0  0  0  0
   -3.5724   -0.4125    0.0000 O   0  0  0  0  0  0  0  0  0  0  0  0
   -2.8579   -1.6500    0.0000 C   0  0  0  0  0  0  0  0  0  0  0  0
   -2.8579   -2.4750    0.0000 C   0  0  0  0  0  0  0  0  0  0  0  0
   -2.1434   -1.2375    0.0000 N   0  0  0  0  0  0  0  0  0  0  0  0
   -1.4289   -1.6500    0.0000 C   0  0  0  0  0  0  0  0  0  0  0  0
   -1.4289   -2.4750    0.0000 O   0  0  0  0  0  0  0  0  0  0  0  0
   -0.7145   -1.2375    0.0000 C   0  0  0  0  0  0  0  0  0  0  0  0
    0.0000   -1.6500    0.0000 C   0  0  0  0  0  0  0  0  0  0  0  0
    0.7145   -1.2375    0.0000 C   0  0  0  0  0  0  0  0  0  0  0  0
    1.4289   -1.6500    0.0000 C   0  0  0  0  0  0  0  0  0  0  0  0
    2.1434   -1.2375    0.0000 C   0  0  0  0  0  0  0  0  0  0  0  0
    2.8579   -1.6500    0.0000 C   0  0  0  0  0  0  0  0  0  0  0  0
    2.8579   -2.4750    0.0000 C   0  0  0  0  0  0  0  0  0  0  0  0
    2.1434   -2.8875    0.0000 C   0  0  0  0  0  0  0  0  0  0  0  0
    1.4289   -2.4750    0.0000 C   0  0  0  0  0  0  0  0  0  0  0  0
    0.7145   -0.4125    0.0000 C   0  0  0  0  0  0  0  0  0  0  0  0
    0.0000   -0.0000    0.0000 C   0  0  0  0  0  0  0  0  0  0  0  0
    0.0000    0.8250    0.0000 C   0  0  0  0  0  0  0  0  0  0  0  0
    0.7145    1.2375    0.0000 C   0  0  0  0  0  0  0  0  0  0  0  0
    0.1842    1.8695    0.0000 C   0  0  0  0  0  0  0  0  0  0  0  0
    1.2448    1.8695    0.0000 C   0  0  0  0  0  0  0  0  0  0  0  0
    1.4289    0.8250    0.0000 C   0  0  0  0  0  0  0  0  0  0  0  0
    1.4289   -0.0000    0.0000 C   0  0  0  0  0  0  0  0  0  0  0  0
    2.1434   -0.4125    0.0000 O   0  0  0  0  0  0  0  0  0  0  0  0
   -0.7145   -0.4125    0.0000 N   0  0  0  0  0  0  0  0  0  0  0  0
  1  2  1  0  0  0  0
  2  3  1  0  0  0  0
  3  4  2  0  0  0  0
  3  5  1  0  0  0  0
  5  6  1  0  0  0  0
  5  7  1  0  0  0  0
  7  8  1  0  0  0  0
  8  9  2  0  0  0  0
  8 10  1  0  0  0  0
 10 11  2  0  0  0  0
 11 12  1  0  0  0  0
 12 13  1  0  0  0  0
 13 14  2  0  0  0  0
 14 15  1  0  0  0  0
 15 16  2  0  0  0  0
 16 17  1  0  0  0  0
 17 18  2  0  0  0  0
 13 18  1  0  0  0  0
 12 19  1  0  0  0  0
 19 20  2  0  0  0  0
 20 21  1  0  0  0  0
 21 22  1  0  0  0  0
 22 23  1  0  0  0  0
 22 24  1  0  0  0  0
 22 25  1  0  0  0  0
 25 26  1  0  0  0  0
 19 26  1  0  0  0  0
 26 27  2  0  0  0  0
 20 28  1  0  0  0  0
 10 28  1  0  0  0  0
M  END
> <ID>
CPD_32

$$$$
CPD_37
  Mrv1822 09091914012D          

 31 32  0  0  0  0            999 V2000
   -1.4289   -4.1250    0.0000 C   0  0  0  0  0  0  0  0  0  0  0  0
   -1.4289   -4.9500    0.0000 C   0  0  0  0  0  0  0  0  0  0  0  0
   -0.7145   -5.3625    0.0000 O   0  0  0  0  0  0  0  0  0  0  0  0
   -0.7145   -6.1875    0.0000 C   0  0  0  0  0  0  0  0  0  0  0  0
   -1.4289   -6.6000    0.0000 O   0  0  0  0  0  0  0  0  0  0  0  0
    0.0000   -6.6000    0.0000 C   0  0  0  0  0  0  0  0  0  0  0  0
    0.0000   -7.4250    0.0000 C   0  0  0  0  0  0  0  0  0  0  0  0
    0.7145   -7.8375    0.0000 N   0  0  0  0  0  0  0  0  0  0  0  0
    0.7145   -8.6625    0.0000 C   0  0  0  0  0  0  0  0  0  0  0  0
    0.0000   -9.0750    0.0000 C   0  0  0  0  0  0  0  0  0  0  0  0
    0.0000   -9.9000    0.0000 C   0  0  0  0  0  0  0  0  0  0  0  0
   -0.7145  -10.3125    0.0000 C   0  0  0  0  0  0  0  0  0  0  0  0
   -1.4289   -9.9000    0.0000 C   0  0  0  0  0  0  0  0  0  0  0  0
   -1.4289   -9.0750    0.0000 C   0  0  0  0  0  0  0  0  0  0  0  0
   -0.7145   -8.6625    0.0000 C   0  0  0  0  0  0  0  0  0  0  0  0
    1.4289   -9.0750    0.0000 C   0  0  0  0  0  0  0  0  0  0  0  0
    2.1434   -8.6625    0.0000 C   0  0  0  0  0  0  0  0  0  0  0  0
    2.8579   -9.0750    0.0000 C   0  0  0  0  0  0  0  0  0  0  0  0
    2.8579   -9.9000    0.0000 C   0  0  0  0  0  0  0  0  0  0  0  0
    2.1434  -10.3125    0.0000 C   0  0  0  0  0  0  0  0  0  0  0  0
    1.4289   -9.9000    0.0000 C   0  0  0  0  0  0  0  0  0  0  0  0
    1.4289   -7.4250    0.0000 C   0  0  0  0  0  0  0  0  0  0  0  0
    2.1434   -7.8375    0.0000 O   0  0  0  0  0  0  0  0  0  0  0  0
    1.4289   -6.6000    0.0000 C   0  0  0  0  0  0  0  0  0  0  0  0
    0.7145   -6.1875    0.0000 C   0  0  0  0  0  0  0  0  0  0  0  0
    2.1434   -6.1875    0.0000 N   0  0  0  0  0  0  0  0  0  0  0  0
    2.1434   -5.3625    0.0000 C   0  0  0  0  0  0  0  0  0  0  0  0
    1.4289   -4.9500    0.0000 O   0  0  0  0  0  0  0  0  0  0  0  0
    2.8579   -4.9500    0.0000 C   0  0  0  0  0  0  0  0  0  0  0  0
    2.8579   -4.1250    0.0000 C   0  0  0  0  0  0  0  0  0  0  0  0
    3.5724   -5.3625    0.0000 C   0  0  0  0  0  0  0  0  0  0  0  0
  1  2  1  0  0  0  0
  2  3  1  0  0  0  0
  3  4  1  0  0  0  0
  4  5  2  0  0  0  0
  4  6  1  0  0  0  0
  6  7  1  0  0  0  0
  7  8  1  0  0  0  0
  8  9  1  0  0  0  0
  9 10  1  0  0  0  0
 10 11  2  0  0  0  0
 11 12  1  0  0  0  0
 12 13  2  0  0  0  0
 13 14  1  0  0  0  0
 14 15  2  0  0  0  0
 10 15  1  0  0  0  0
  9 16  1  0  0  0  0
 16 17  2  0  0  0  0
 17 18  1  0  0  0  0
 18 19  2  0  0  0  0
 19 20  1  0  0  0  0
 20 21  2  0  0  0  0
 16 21  1  0  0  0  0
  8 22  1  0  0  0  0
 22 23  2  0  0  0  0
 22 24  1  0  0  0  0
 24 25  1  0  0  0  0
 24 26  1  0  0  0  0
 26 27  1  0  0  0  0
 27 28  2  0  0  0  0
 27 29  1  0  0  0  0
 29 30  1  0  0  0  0
 29 31  1  0  0  0  0
M  END
> <ID>
CPD_37

$$$$
CPD_42
  Mrv1822 09091914012D          

 31 33  0  0  0  0            999 V2000
   -2.8579    1.6500    0.0000 C   0  0  0  0  0  0  0  0  0  0  0  0
   -2.1434    1.2375    0.0000 C   0  0  0  0  0  0  0  0  0  0  0  0
   -1.4289    1.6500    0.0000 O   0  0  0  0  0  0  0  0  0  0  0  0
   -0.7145    1.2375    0.0000 C   0  0  0  0  0  0  0  0  0  0  0  0
   -0.7145    0.4125    0.0000 O   0  0  0  0  0  0  0  0  0  0  0  0
    0.0000    1.6500    0.0000 C   0  0  0  0  0  0  0  0  0  0  0  0
    0.7145    1.2375    0.0000 C   0  0  0  0  0  0  0  0  0  0  0  0
    1.4289    1.6500    0.0000 N   0  0  0  0  0  0  0  0  0  0  0  0
    1.4289    2.4750    0.0000 C   0  0  0  0  0  0  0  0  0  0  0  0
    2.1434    2.8875    0.0000 C   0  0  0  0  0  0  0  0  0  0  0  0
    2.1434    3.7125    0.0000 C   0  0  0  0  0  0  0  0  0  0  0  0
    2.8579    4.1250    0.0000 C   0  0  0  0  0  0  0  0  0  0  0  0
    3.5724    3.7125    0.0000 C   0  0  0  0  0  0  0  0  0  0  0  0
    3.5724    2.8875    0.0000 C   0  0  0  0  0  0  0  0  0  0  0  0
    2.8579    2.4750    0.0000 C   0  0  0  0  0  0  0  0  0  0  0  0
    0.7145    2.8875    0.0000 C   0  0  0  0  0  0  0  0  0  0  0  0
   -0.0000    2.4750    0.0000 C   0  0  0  0  0  0  0  0  0  0  0  0
   -0.7145    2.8875    0.0000 C   0  0  0  0  0  0  0  0  0  0  0  0
   -0.7145    3.7125    0.0000 C   0  0  0  0  0  0  0  0  0  0  0  0
   -0.0000    4.1250    0.0000 C   0  0  0  0  0  0  0  0  0  0  0  0
    0.7145    3.7125    0.0000 C   0  0  0  0  0  0  0  0  0  0  0  0
    2.1434    1.2375    0.0000 C   0  0  0  0  0  0  0  0  0  0  0  0
    2.8579    1.6500    0.0000 O   0  0  0  0  0  0  0  0  0  0  0  0
    2.1434    0.4125    0.0000 C   0  0  0  0  0  0  0  0  0  0  0  0
    1.4760   -0.0724    0.0000 C   0  0  0  0  0  0  0  0  0  0  0  0
    0.6914    0.1825    0.0000 N   0  0  0  0  0  0  0  0  0  0  0  0
    1.7309   -0.8570    0.0000 S   0  0  0  0  0  0  0  0  0  0  0  0
    2.5559   -0.8570    0.0000 C   0  0  0  0  0  0  0  0  0  0  0  0
    3.0408   -1.5245    0.0000 C   0  0  0  0  0  0  0  0  0  0  0  0
    3.8613   -1.4382    0.0000 C   0  0  0  0  0  0  0  0  0  0  0  0
    2.8109   -0.0724    0.0000 C   0  0  0  0  0  0  0  0  0  0  0  0
  1  2  1  0  0  0  0
  2  3  1  0  0  0  0
  3  4  1  0  0  0  0
  4  5  2  0  0  0  0
  4  6  1  0  0  0  0
  6  7  1  0  0  0  0
  7  8  1  0  0  0  0
  8  9  1  0  0  0  0
  9 10  1  0  0  0  0
 10 11  2  0  0  0  0
 11 12  1  0  0  0  0
 12 13  2  0  0  0  0
 13 14  1  0  0  0  0
 14 15  2  0  0  0  0
 10 15  1  0  0  0  0
  9 16  1  0  0  0  0
 16 17  2  0  0  0  0
 17 18  1  0  0  0  0
 18 19  2  0  0  0  0
 19 20  1  0  0  0  0
 20 21  2  0  0  0  0
 16 21  1  0  0  0  0
  8 22  1  0  0  0  0
 22 23  2  0  0  0  0
 22 24  1  0  0  0  0
 24 25  2  0  0  0  0
 25 26  1  0  0  0  0
 25 27  1  0  0  0  0
 27 28  1  0  0  0  0
 28 29  1  0  0  0  0
 29 30  1  0  0  0  0
 28 31  2  0  0  0  0
 24 31  1  0  0  0  0
M  END
> <ID>
CPD_42

$$$$
CPD_47
  Mrv1822 09091914012D          

 31 33  0  0  0  0            999 V2000
    2.8579   -6.6000    0.0000 C   0  0  0  0  0  0  0  0  0  0  0  0
    3.5724   -6.1875    0.0000 C   0  0  0  0  0  0  0  0  0  0  0  0
    4.2868   -6.6000    0.0000 O   0  0  0  0  0  0  0  0  0  0  0  0
    5.0013   -6.1875    0.0000 C   0  0  0  0  0  0  0  0  0  0  0  0
    5.0013   -5.3625    0.0000 O   0  0  0  0  0  0  0  0  0  0  0  0
    5.7158   -6.6000    0.0000 C   0  0  0  0  0  0  0  0  0  0  0  0
    6.4302   -6.1875    0.0000 C   0  0  0  0  0  0  0  0  0  0  0  0
    7.1447   -6.6000    0.0000 N   0  0  0  0  0  0  0  0  0  0  0  0
    7.1447   -7.4250    0.0000 C   0  0  0  0  0  0  0  0  0  0  0  0
    7.8592   -7.8375    0.0000 C   0  0  0  0  0  0  0  0  0  0  0  0
    8.5737   -7.4250    0.0000 C   0  0  0  0  0  0  0  0  0  0  0  0
    9.2881   -7.8375    0.0000 C   0  0  0  0  0  0  0  0  0  0  0  0
    9.2881   -8.6625    0.0000 C   0  0  0  0  0  0  0  0  0  0  0  0
    8.5737   -9.0750    0.0000 C   0  0  0  0  0  0  0  0  0  0  0  0
    7.8592   -8.6625    0.0000 C   0  0  0  0  0  0  0  0  0  0  0  0
    6.4302   -7.8375    0.0000 C   0  0  0  0  0  0  0  0  0  0  0  0
    6.4302   -8.6625    0.0000 C   0  0  0  0  0  0  0  0  0  0  0  0
    5.7158   -9.0750    0.0000 C   0  0  0  0  0  0  0  0  0  0  0  0
    5.0013   -8.6625    0.0000 C   0  0  0  0  0  0  0  0  0  0  0  0
    5.0013   -7.8375    0.0000 C   0  0  0  0  0  0  0  0  0  0  0  0
    5.7158   -7.4250    0.0000 C   0  0  0  0  0  0  0  0  0  0  0  0
    7.8592   -6.1875    0.0000 C   0  0  0  0  0  0  0  0  0  0  0  0
    7.8592   -5.3625    0.0000 O   0  0  0  0  0  0  0  0  0  0  0  0
    8.5737   -6.6000    0.0000 C   0  0  0  0  0  0  0  0  0  0  0  0
    9.2881   -6.1875    0.0000 C   0  0  0  0  0  0  0  0  0  0  0  0
   10.0026   -6.6000    0.0000 C   0  0  0  0  0  0  0  0  0  0  0  0
   10.7171   -6.1875    0.0000 C   0  0  0  0  0  0  0  0  0  0  0  0
   11.4315   -6.6000    0.0000 N   0  0  0  0  0  0  0  0  0  0  0  0
   11.4315   -7.4250    0.0000 C   0  0  0  0  0  0  0  0  0  0  0  0
   10.7171   -7.8375    0.0000 C   0  0  0  0  0  0  0  0  0  0  0  0
   10.0026   -7.4250    0.0000 C   0  0  0  0  0  0  0  0  0  0  0  0
  1  2  1  0  0  0  0
  2  3  1  0  0  0  0
  3  4  1  0  0  0  0
  4  5  2  0  0  0  0
  4  6  1  0  0  0  0
  6  7  1  0  0  0  0
  7  8  1  0  0  0  0
  8  9  1  0  0  0  0
  9 10  1  0  0  0  0
 10 11  2  0  0  0  0
 11 12  1  0  0  0  0
 12 13  2  0  0  0  0
 13 14  1  0  0  0  0
 14 15  2  0  0  0  0
 10 15  1  0  0  0  0
  9 16  1  0  0  0  0
 16 17  2  0  0  0  0
 17 18  1  0  0  0  0
 18 19  2  0  0  0  0
 19 20  1  0  0  0  0
 20 21  2  0  0  0  0
 16 21  1  0  0  0  0
  8 22  1  0  0  0  0
 22 23  2  0  0  0  0
 22 24  1  0  0  0  0
 24 25  1  0  0  0  0
 25 26  1  0  0  0  0
 26 27  2  0  0  0  0
 27 28  1  0  0  0  0
 28 29  2  0  0  0  0
 29 30  1  0  0  0  0
 30 31  2  0  0  0  0
 26 31  1  0  0  0  0
M  END
> <ID>
CPD_47

$$$$
CPD_52
  Mrv1822 09091914012D          

 24 26  0  0  1  0            999 V2000
    1.4289   -4.1250    0.0000 C   0  0  0  0  0  0  0  0  0  0  0  0
    0.7145   -3.7125    0.0000 N   0  0  0  0  0  0  0  0  0  0  0  0
    0.0000   -4.1250    0.0000 C   0  0  0  0  0  0  0  0  0  0  0  0
    0.7145   -2.8875    0.0000 C   0  0  0  0  0  0  0  0  0  0  0  0
    1.4289   -2.4750    0.0000 C   0  0  1  0  0  0  0  0  0  0  0  0
    2.1434   -2.8875    0.0000 N   0  0  0  0  0  0  0  0  0  0  0  0
    2.1434   -3.7125    0.0000 C   0  0  0  0  0  0  0  0  0  0  0  0
    1.8079   -4.4662    0.0000 O   0  0  0  0  0  0  0  0  0  0  0  0
    2.8579   -4.1250    0.0000 C   0  0  0  0  0  0  0  0  0  0  0  0
    2.8579   -4.9500    0.0000 C   0  0  0  0  0  0  0  0  0  0  0  0
    3.5724   -5.3625    0.0000 C   0  0  0  0  0  0  0  0  0  0  0  0
    4.2868   -4.9500    0.0000 C   0  0  0  0  0  0  0  0  0  0  0  0
    5.0013   -5.3625    0.0000 N   0  0  0  0  0  0  0  0  0  0  0  0
    5.0013   -6.1875    0.0000 C   0  0  0  0  0  0  0  0  0  0  0  0
    4.2868   -6.6000    0.0000 C   0  0  0  0  0  0  0  0  0  0  0  0
    3.5724   -6.1875    0.0000 C   0  0  0  0  0  0  0  0  0  0  0  0
    4.2868   -4.1250    0.0000 N   0  0  0  0  0  0  0  0  0  0  0  0
    3.5724   -3.7125    0.0000 C   0  0  0  0  0  0  0  0  0  0  0  0
    1.4289   -1.6500    0.0000 C   0  0  0  0  0  0  0  0  0  0  0  0
    0.7145   -1.2375    0.0000 C   0  0  0  0  0  0  0  0  0  0  0  0
    0.7145   -0.4125    0.0000 C   0  0  0  0  0  0  0  0  0  0  0  0
    1.4289    0.0000    0.0000 C   0  0  0  0  0  0  0  0  0  0  0  0
    2.1434   -0.4125    0.0000 C   0  0  0  0  0  0  0  0  0  0  0  0
    2.1434   -1.2375    0.0000 C   0  0  0  0  0  0  0  0  0  0  0  0
  1  2  1  0  0  0  0
  2  3  1  0  0  0  0
  2  4  1  0  0  0  0
  5  4  1  0  0  0  0
  5  6  1  6  0  0  0
  6  7  1  0  0  0  0
  7  8  2  0  0  0  0
  7  9  1  0  0  0  0
  9 10  2  0  0  0  0
 10 11  1  0  0  0  0
 11 12  2  0  0  0  0
 12 13  1  0  0  0  0
 13 14  1  0  0  0  0
 14 15  1  0  0  0  0
 15 16  1  0  0  0  0
 11 16  1  0  0  0  0
 12 17  1  0  0  0  0
 17 18  2  0  0  0  0
  9 18  1  0  0  0  0
  5 19  1  0  0  0  0
 19 20  2  0  0  0  0
 20 21  1  0  0  0  0
 21 22  2  0  0  0  0
 22 23  1  0  0  0  0
 23 24  2  0  0  0  0
 19 24  1  0  0  0  0
M  END
> <ID>
CPD_52

$$$$
CPD_57
  Mrv1822 09091914012D          

 23 25  0  0  1  0            999 V2000
    4.0709   -3.1471    0.0000 C   0  0  0  0  0  0  0  0  0  0  0  0
    3.3565   -2.7346    0.0000 N   0  0  0  0  0  0  0  0  0  0  0  0
    2.6420   -3.1471    0.0000 C   0  0  0  0  0  0  0  0  0  0  0  0
    3.3565   -1.9096    0.0000 C   0  0  0  0  0  0  0  0  0  0  0  0
    4.0709   -1.4971    0.0000 C   0  0  1  0  0  0  0  0  0  0  0  0
    4.7854   -1.9096    0.0000 N   0  0  0  0  0  0  0  0  0  0  0  0
    4.7854   -2.7346    0.0000 C   0  0  0  0  0  0  0  0  0  0  0  0
    4.4499   -3.4883    0.0000 O   0  0  0  0  0  0  0  0  0  0  0  0
    5.4999   -3.1471    0.0000 C   0  0  0  0  0  0  0  0  0  0  0  0
    6.2536   -2.8116    0.0000 C   0  0  0  0  0  0  0  0  0  0  0  0
    6.8056   -3.4247    0.0000 N   0  0  0  0  0  0  0  0  0  0  0  0
    7.6306   -3.4247    0.0000 C   0  0  0  0  0  0  0  0  0  0  0  0
    8.0431   -4.1392    0.0000 C   0  0  0  0  0  0  0  0  0  0  0  0
    7.6306   -4.8536    0.0000 C   0  0  0  0  0  0  0  0  0  0  0  0
    6.8056   -4.8536    0.0000 N   0  0  0  0  0  0  0  0  0  0  0  0
    6.3931   -4.1392    0.0000 C   0  0  0  0  0  0  0  0  0  0  0  0
    5.5861   -3.9676    0.0000 N   0  0  0  0  0  0  0  0  0  0  0  0
    4.0709   -0.6721    0.0000 C   0  0  0  0  0  0  0  0  0  0  0  0
    3.3565   -0.2596    0.0000 C   0  0  0  0  0  0  0  0  0  0  0  0
    3.3565    0.5654    0.0000 C   0  0  0  0  0  0  0  0  0  0  0  0
    4.0709    0.9779    0.0000 C   0  0  0  0  0  0  0  0  0  0  0  0
    4.7854    0.5654    0.0000 C   0  0  0  0  0  0  0  0  0  0  0  0
    4.7854   -0.2596    0.0000 C   0  0  0  0  0  0  0  0  0  0  0  0
  1  2  1  0  0  0  0
  2  3  1  0  0  0  0
  2  4  1  0  0  0  0
  5  4  1  0  0  0  0
  5  6  1  6  0  0  0
  6  7  1  0  0  0  0
  7  8  2  0  0  0  0
  7  9  1  0  0  0  0
  9 10  2  0  0  0  0
 10 11  1  0  0  0  0
 11 12  1  0  0  0  0
 12 13  2  0  0  0  0
 13 14  1  0  0  0  0
 14 15  2  0  0  0  0
 15 16  1  0  0  0  0
 11 16  1  0  0  0  0
 16 17  2  0  0  0  0
  9 17  1  0  0  0  0
  5 18  1  0  0  0  0
 18 19  2  0  0  0  0
 19 20  1  0  0  0  0
 20 21  2  0  0  0  0
 21 22  1  0  0  0  0
 22 23  2  0  0  0  0
 18 23  1  0  0  0  0
M  END
> <ID>
CPD_57

$$$$
CPD_62
  Mrv1822 09091914012D          

 22 23  0  0  1  0            999 V2000
    2.1434   -2.0625    0.0000 C   0  0  0  0  0  0  0  0  0  0  0  0
    2.1434   -1.2375    0.0000 N   0  0  0  0  0  0  0  0  0  0  0  0
    1.4289   -0.8250    0.0000 C   0  0  0  0  0  0  0  0  0  0  0  0
    2.8579   -0.8250    0.0000 C   0  0  0  0  0  0  0  0  0  0  0  0
    3.5724   -1.2375    0.0000 C   0  0  1  0  0  0  0  0  0  0  0  0
    4.2868   -0.8250    0.0000 N   0  0  0  0  0  0  0  0  0  0  0  0
    5.0013   -1.2375    0.0000 C   0  0  0  0  0  0  0  0  0  0  0  0
    5.0013   -2.0625    0.0000 O   0  0  0  0  0  0  0  0  0  0  0  0
    5.7158   -0.8250    0.0000 C   0  0  0  0  0  0  0  0  0  0  0  0
    6.4302   -0.4125    0.0000 C   0  0  0  0  0  0  0  0  0  0  0  0
    6.8427   -1.1270    0.0000 C   0  0  0  0  0  0  0  0  0  0  0  0
    6.1283   -1.5395    0.0000 C   0  0  0  0  0  0  0  0  0  0  0  0
    5.3033   -0.1105    0.0000 C   0  0  0  0  0  0  0  0  0  0  0  0
    4.8908    0.6039    0.0000 F   0  0  0  0  0  0  0  0  0  0  0  0
    6.0177    0.3020    0.0000 F   0  0  0  0  0  0  0  0  0  0  0  0
    4.5888   -0.5230    0.0000 F   0  0  0  0  0  0  0  0  0  0  0  0
    3.5724   -2.0625    0.0000 C   0  0  0  0  0  0  0  0  0  0  0  0
    4.2868   -2.4750    0.0000 C   0  0  0  0  0  0  0  0  0  0  0  0
    4.2868   -3.3000    0.0000 C   0  0  0  0  0  0  0  0  0  0  0  0
    3.5724   -3.7125    0.0000 C   0  0  0  0  0  0  0  0  0  0  0  0
    2.8579   -3.3000    0.0000 C   0  0  0  0  0  0  0  0  0  0  0  0
    2.8579   -2.4750    0.0000 C   0  0  0  0  0  0  0  0  0  0  0  0
  1  2  1  0  0  0  0
  2  3  1  0  0  0  0
  2  4  1  0  0  0  0
  5  4  1  0  0  0  0
  5  6  1  1  0  0  0
  6  7  1  0  0  0  0
  7  8  2  0  0  0  0
  7  9  1  0  0  0  0
  9 10  1  0  0  0  0
 10 11  1  0  0  0  0
 11 12  1  0  0  0  0
  9 12  1  0  0  0  0
  9 13  1  0  0  0  0
 13 14  1  0  0  0  0
 13 15  1  0  0  0  0
 13 16  1  0  0  0  0
  5 17  1  0  0  0  0
 17 18  2  0  0  0  0
 18 19  1  0  0  0  0
 19 20  2  0  0  0  0
 20 21  1  0  0  0  0
 21 22  2  0  0  0  0
 17 22  1  0  0  0  0
M  END
> <ID>
CPD_62

$$$$
CPD_67
  Mrv1822 09091914012D          

 33 35  0  0  0  0            999 V2000
   -1.5395   -3.7125    0.0000 C   0  0  0  0  0  0  0  0  0  0  0  0
   -0.7145   -3.7125    0.0000 C   0  0  0  0  0  0  0  0  0  0  0  0
   -0.3020   -2.9980    0.0000 O   0  0  0  0  0  0  0  0  0  0  0  0
    0.5230   -2.9980    0.0000 C   0  0  0  0  0  0  0  0  0  0  0  0
    0.9355   -3.7125    0.0000 O   0  0  0  0  0  0  0  0  0  0  0  0
    0.9355   -2.2836    0.0000 C   0  0  0  0  0  0  0  0  0  0  0  0
    1.7605   -2.2836    0.0000 C   0  0  0  0  0  0  0  0  0  0  0  0
    2.1730   -2.9980    0.0000 N   0  0  0  0  0  0  0  0  0  0  0  0
    1.7605   -3.7125    0.0000 C   0  0  0  0  0  0  0  0  0  0  0  0
    1.0931   -4.1974    0.0000 O   0  0  0  0  0  0  0  0  0  0  0  0
    2.1730   -4.4270    0.0000 C   0  0  0  0  0  0  0  0  0  0  0  0
    2.9935   -4.5132    0.0000 C   0  0  0  0  0  0  0  0  0  0  0  0
    3.1650   -5.3202    0.0000 C   0  0  0  0  0  0  0  0  0  0  0  0
    2.4506   -5.7327    0.0000 C   0  0  0  0  0  0  0  0  0  0  0  0
    2.3643   -6.5532    0.0000 O   0  0  0  0  0  0  0  0  0  0  0  0
    1.8375   -5.1806    0.0000 N   0  0  0  0  0  0  0  0  0  0  0  0
    1.0305   -5.3522    0.0000 C   0  0  0  0  0  0  0  0  0  0  0  0
    0.7756   -6.1368    0.0000 C   0  0  0  0  0  0  0  0  0  0  0  0
    1.3276   -6.7499    0.0000 C   0  0  0  0  0  0  0  0  0  0  0  0
    1.0727   -7.5345    0.0000 C   0  0  0  0  0  0  0  0  0  0  0  0
    0.2657   -7.7060    0.0000 C   0  0  0  0  0  0  0  0  0  0  0  0
   -0.2864   -7.0929    0.0000 C   0  0  0  0  0  0  0  0  0  0  0  0
   -0.0314   -6.3083    0.0000 C   0  0  0  0  0  0  0  0  0  0  0  0
   -0.5834   -5.6952    0.0000 Cl  0  0  0  0  0  0  0  0  0  0  0  0
    2.1730   -1.5691    0.0000 C   0  0  0  0  0  0  0  0  0  0  0  0
    1.7605   -0.8546    0.0000 C   0  0  0  0  0  0  0  0  0  0  0  0
    0.9355   -0.8546    0.0000 O   0  0  0  0  0  0  0  0  0  0  0  0
    0.5230   -0.1401    0.0000 C   0  0  0  0  0  0  0  0  0  0  0  0
    2.1730   -0.1401    0.0000 C   0  0  0  0  0  0  0  0  0  0  0  0
    2.9980   -0.1401    0.0000 C   0  0  0  0  0  0  0  0  0  0  0  0
    3.4105   -0.8546    0.0000 C   0  0  0  0  0  0  0  0  0  0  0  0
    4.2355   -0.8546    0.0000 Cl  0  0  0  0  0  0  0  0  0  0  0  0
    2.9980   -1.5691    0.0000 C   0  0  0  0  0  0  0  0  0  0  0  0
  1  2  1  0  0  0  0
  2  3  1  0  0  0  0
  3  4  1  0  0  0  0
  4  5  2  0  0  0  0
  4  6  1  0  0  0  0
  6  7  1  0  0  0  0
  7  8  1  0  0  0  0
  8  9  1  0  0  0  0
  9 10  2  0  0  0  0
  9 11  1  0  0  0  0
 11 12  1  0  0  0  0
 12 13  1  0  0  0  0
 13 14  1  0  0  0  0
 14 15  2  0  0  0  0
 14 16  1  0  0  0  0
 11 16  1  0  0  0  0
 16 17  1  0  0  0  0
 17 18  1  0  0  0  0
 18 19  2  0  0  0  0
 19 20  1  0  0  0  0
 20 21  2  0  0  0  0
 21 22  1  0  0  0  0
 22 23  2  0  0  0  0
 18 23  1  0  0  0  0
 23 24  1  0  0  0  0
  7 25  1  0  0  0  0
 25 26  2  0  0  0  0
 26 27  1  0  0  0  0
 27 28  1  0  0  0  0
 26 29  1  0  0  0  0
 29 30  2  0  0  0  0
 30 31  1  0  0  0  0
 31 32  1  0  0  0  0
 31 33  2  0  0  0  0
 25 33  1  0  0  0  0
M  END
> <ID>
CPD_67

$$$$
CPD_72
  Mrv1822 09091914012D          

 27 28  0  0  0  0            999 V2000
   -1.4289   -4.1250    0.0000 C   0  0  0  0  0  0  0  0  0  0  0  0
   -0.7145   -3.7125    0.0000 C   0  0  0  0  0  0  0  0  0  0  0  0
   -0.7145   -2.8875    0.0000 O   0  0  0  0  0  0  0  0  0  0  0  0
    0.0000   -2.4750    0.0000 C   0  0  0  0  0  0  0  0  0  0  0  0
    0.7145   -2.8875    0.0000 O   0  0  0  0  0  0  0  0  0  0  0  0
    0.0000   -1.6500    0.0000 C   0  0  0  0  0  0  0  0  0  0  0  0
    0.7145   -1.2375    0.0000 C   0  0  0  0  0  0  0  0  0  0  0  0
    1.4289   -1.6500    0.0000 N   0  0  0  0  0  0  0  0  0  0  0  0
    1.4289   -2.4750    0.0000 C   0  0  0  0  0  0  0  0  0  0  0  0
    1.0934   -3.2287    0.0000 O   0  0  0  0  0  0  0  0  0  0  0  0
    2.1434   -2.8875    0.0000 C   0  0  0  0  0  0  0  0  0  0  0  0
    2.1434   -3.7125    0.0000 C   0  0  0  0  0  0  0  0  0  0  0  0
    1.4289   -4.1250    0.0000 N   0  0  0  0  0  0  0  0  0  0  0  0
    1.4289   -4.9500    0.0000 C   0  0  0  0  0  0  0  0  0  0  0  0
    2.1434   -5.3625    0.0000 C   0  0  0  0  0  0  0  0  0  0  0  0
    2.8579   -4.9500    0.0000 C   0  0  0  0  0  0  0  0  0  0  0  0
    2.8579   -4.1250    0.0000 C   0  0  0  0  0  0  0  0  0  0  0  0
    3.5724   -3.7125    0.0000 O   0  0  0  0  0  0  0  0  0  0  0  0
    0.7145   -0.4125    0.0000 C   0  0  0  0  0  0  0  0  0  0  0  0
    0.0000    0.0000    0.0000 C   0  0  0  0  0  0  0  0  0  0  0  0
   -0.7145   -0.4125    0.0000 O   0  0  0  0  0  0  0  0  0  0  0  0
   -1.4289    0.0000    0.0000 C   0  0  0  0  0  0  0  0  0  0  0  0
    0.0000    0.8250    0.0000 C   0  0  0  0  0  0  0  0  0  0  0  0
    0.7145    1.2375    0.0000 C   0  0  0  0  0  0  0  0  0  0  0  0
    1.4289    0.8250    0.0000 C   0  0  0  0  0  0  0  0  0  0  0  0
    2.1434    1.2375    0.0000 Cl  0  0  0  0  0  0  0  0  0  0  0  0
    1.4289    0.0000    0.0000 C   0  0  0  0  0  0  0  0  0  0  0  0
  1  2  1  0  0  0  0
  2  3  1  0  0  0  0
  3  4  1  0  0  0  0
  4  5  2  0  0  0  0
  4  6  1  0  0  0  0
  6  7  1  0  0  0  0
  7  8  1  0  0  0  0
  8  9  1  0  0  0  0
  9 10  2  0  0  0  0
  9 11  1  0  0  0  0
 11 12  1  0  0  0  0
 12 13  2  0  0  0  0
 13 14  1  0  0  0  0
 14 15  2  0  0  0  0
 15 16  1  0  0  0  0
 16 17  2  0  0  0  0
 12 17  1  0  0  0  0
 17 18  1  0  0  0  0
  7 19  1  0  0  0  0
 19 20  2  0  0  0  0
 20 21  1  0  0  0  0
 21 22  1  0  0  0  0
 20 23  1  0  0  0  0
 23 24  2  0  0  0  0
 24 25  1  0  0  0  0
 25 26  1  0  0  0  0
 25 27  2  0  0  0  0
 19 27  1  0  0  0  0
M  END
> <ID>
CPD_72

$$$$
CPD_77
  Mrv1822 09091914012D          

 27 28  0  0  0  0            999 V2000
    1.3184   -3.7125    0.0000 C   0  0  0  0  0  0  0  0  0  0  0  0
    2.1434   -3.7125    0.0000 C   0  0  0  0  0  0  0  0  0  0  0  0
    2.5559   -4.4270    0.0000 O   0  0  0  0  0  0  0  0  0  0  0  0
    3.3809   -4.4270    0.0000 C   0  0  0  0  0  0  0  0  0  0  0  0
    3.7934   -3.7125    0.0000 O   0  0  0  0  0  0  0  0  0  0  0  0
    3.7934   -5.1414    0.0000 C   0  0  0  0  0  0  0  0  0  0  0  0
    4.6184   -5.1414    0.0000 C   0  0  0  0  0  0  0  0  0  0  0  0
    5.0309   -4.4270    0.0000 N   0  0  0  0  0  0  0  0  0  0  0  0
    4.6184   -3.7125    0.0000 C   0  0  0  0  0  0  0  0  0  0  0  0
    3.9510   -3.2276    0.0000 O   0  0  0  0  0  0  0  0  0  0  0  0
    5.0309   -2.9980    0.0000 C   0  0  0  0  0  0  0  0  0  0  0  0
    4.6184   -2.2836    0.0000 C   0  0  0  0  0  0  0  0  0  0  0  0
    5.0309   -1.5691    0.0000 C   0  0  0  0  0  0  0  0  0  0  0  0
    5.8559   -1.5691    0.0000 C   0  0  0  0  0  0  0  0  0  0  0  0
    6.2684   -0.8546    0.0000 N   0  0  0  0  0  0  0  0  0  0  0  0
    6.2684   -2.2836    0.0000 C   0  0  0  0  0  0  0  0  0  0  0  0
    5.8559   -2.9980    0.0000 C   0  0  0  0  0  0  0  0  0  0  0  0
    6.2684   -3.7125    0.0000 Br  0  0  0  0  0  0  0  0  0  0  0  0
    5.0309   -5.8559    0.0000 C   0  0  0  0  0  0  0  0  0  0  0  0
    5.8559   -5.8559    0.0000 C   0  0  0  0  0  0  0  0  0  0  0  0
    6.2684   -5.1414    0.0000 O   0  0  0  0  0  0  0  0  0  0  0  0
    7.0934   -5.1414    0.0000 C   0  0  0  0  0  0  0  0  0  0  0  0
    6.2684   -6.5704    0.0000 C   0  0  0  0  0  0  0  0  0  0  0  0
    5.8559   -7.2849    0.0000 C   0  0  0  0  0  0  0  0  0  0  0  0
    5.0309   -7.2849    0.0000 C   0  0  0  0  0  0  0  0  0  0  0  0
    4.6184   -7.9993    0.0000 Cl  0  0  0  0  0  0  0  0  0  0  0  0
    4.6184   -6.5704    0.0000 C   0  0  0  0  0  0  0  0  0  0  0  0
  1  2  1  0  0  0  0
  2  3  1  0  0  0  0
  3  4  1  0  0  0  0
  4  5  2  0  0  0  0
  4  6  1  0  0  0  0
  6  7  1  0  0  0  0
  7  8  1  0  0  0  0
  8  9  1  0  0  0  0
  9 10  2  0  0  0  0
  9 11  1  0  0  0  0
 11 12  2  0  0  0  0
 12 13  1  0  0  0  0
 13 14  2  0  0  0  0
 14 15  1  0  0  0  0
 14 16  1  0  0  0  0
 16 17  2  0  0  0  0
 11 17  1  0  0  0  0
 17 18  1  0  0  0  0
  7 19  1  0  0  0  0
 19 20  2  0  0  0  0
 20 21  1  0  0  0  0
 21 22  1  0  0  0  0
 20 23  1  0  0  0  0
 23 24  2  0  0  0  0
 24 25  1  0  0  0  0
 25 26  1  0  0  0  0
 25 27  2  0  0  0  0
 19 27  1  0  0  0  0
M  END
> <ID>
CPD_77

$$$$
CPD_82
  Mrv1822 09091914012D          

 29 33  0  0  0  0            999 V2000
    5.3649   -0.3020    0.0000 C   0  0  0  0  0  0  0  0  0  0  0  0
    4.9524    0.4125    0.0000 N   0  0  0  0  0  0  0  0  0  0  0  0
    5.3649    1.1270    0.0000 C   0  0  0  0  0  0  0  0  0  0  0  0
    4.9524    1.8414    0.0000 O   0  0  0  0  0  0  0  0  0  0  0  0
    6.1899    1.1270    0.0000 C   0  0  0  0  0  0  0  0  0  0  0  0
    6.6749    0.4595    0.0000 C   0  0  0  0  0  0  0  0  0  0  0  0
    7.4595    0.7145    0.0000 C   0  0  0  0  0  0  0  0  0  0  0  0
    7.4595    1.5395    0.0000 C   0  0  0  0  0  0  0  0  0  0  0  0
    6.6749    1.7944    0.0000 N   0  0  0  0  0  0  0  0  0  0  0  0
    8.1739    1.9520    0.0000 C   0  0  0  0  0  0  0  0  0  0  0  0
    8.8884    1.5395    0.0000 C   0  0  0  0  0  0  0  0  0  0  0  0
    9.6029    1.9520    0.0000 Cl  0  0  0  0  0  0  0  0  0  0  0  0
    8.8884    0.7145    0.0000 C   0  0  0  0  0  0  0  0  0  0  0  0
    8.1739    0.3020    0.0000 N   0  0  0  0  0  0  0  0  0  0  0  0
    4.1274    0.4125    0.0000 C   0  0  0  0  0  0  0  0  0  0  0  0
    3.6425   -0.2549    0.0000 N   0  0  0  0  0  0  0  0  0  0  0  0
    2.8579   -0.0000    0.0000 C   0  0  0  0  0  0  0  0  0  0  0  0
    2.8579    0.8250    0.0000 C   0  0  0  0  0  0  0  0  0  0  0  0
    3.6425    1.0799    0.0000 S   0  0  0  0  0  0  0  0  0  0  0  0
    2.1434    1.2375    0.0000 C   0  0  0  0  0  0  0  0  0  0  0  0
    2.1434    2.0625    0.0000 O   0  0  0  0  0  0  0  0  0  0  0  0
    1.4289    0.8250    0.0000 C   0  0  0  0  0  0  0  0  0  0  0  0
    1.4289    0.0000    0.0000 C   0  0  0  0  0  0  0  0  0  0  0  0
    0.7145   -0.4125    0.0000 C   0  0  0  0  0  0  0  0  0  0  0  0
    0.0000   -0.0000    0.0000 C   0  0  0  0  0  0  0  0  0  0  0  0
    0.0000    0.8250    0.0000 C   0  0  0  0  0  0  0  0  0  0  0  0
    0.7145    1.2375    0.0000 C   0  0  0  0  0  0  0  0  0  0  0  0
    2.1434   -0.4125    0.0000 C   0  0  0  0  0  0  0  0  0  0  0  0
    2.1434   -1.2375    0.0000 O   0  0  0  0  0  0  0  0  0  0  0  0
  1  2  1  0  0  0  0
  2  3  1  0  0  0  0
  3  4  2  0  0  0  0
  3  5  1  0  0  0  0
  5  6  2  0  0  0  0
  6  7  1  0  0  0  0
  7  8  2  0  0  0  0
  8  9  1  0  0  0  0
  5  9  1  0  0  0  0
  8 10  1  0  0  0  0
 10 11  2  0  0  0  0
 11 12  1  0  0  0  0
 11 13  1  0  0  0  0
 13 14  2  0  0  0  0
  7 14  1  0  0  0  0
  2 15  1  0  0  0  0
 15 16  2  0  0  0  0
 16 17  1  0  0  0  0
 17 18  2  0  0  0  0
 18 19  1  0  0  0  0
 15 19  1  0  0  0  0
 18 20  1  0  0  0  0
 20 21  2  0  0  0  0
 20 22  1  0  0  0  0
 22 23  2  0  0  0  0
 23 24  1  0  0  0  0
 24 25  2  0  0  0  0
 25 26  1  0  0  0  0
 26 27  2  0  0  0  0
 22 27  1  0  0  0  0
 23 28  1  0  0  0  0
 17 28  1  0  0  0  0
 28 29  2  0  0  0  0
M  END
> <ID>
CPD_82

$$$$
CPD_87
  Mrv1822 09091914012D          

 26 29  0  0  1  0            999 V2000
    8.5544    2.9684    0.0000 C   0  0  0  0  0  0  0  0  0  0  0  0
    8.1419    2.2539    0.0000 O   0  0  0  0  0  0  0  0  0  0  0  0
    7.3169    2.2539    0.0000 C   0  0  0  0  0  0  0  0  0  0  0  0
    6.9044    2.9684    0.0000 O   0  0  0  0  0  0  0  0  0  0  0  0
    6.9044    1.5395    0.0000 C   0  0  2  0  0  0  0  0  0  0  0  0
    6.9044    0.7145    0.0000 C   0  0  0  0  0  0  0  0  0  0  0  0
    6.1899    1.1270    0.0000 C   0  0  1  0  0  0  0  0  0  0  0  0
    5.3649    1.1270    0.0000 C   0  0  0  0  0  0  0  0  0  0  0  0
    4.9524    1.8414    0.0000 O   0  0  0  0  0  0  0  0  0  0  0  0
    4.9524    0.4125    0.0000 N   0  0  0  0  0  0  0  0  0  0  0  0
    5.3649   -0.3020    0.0000 C   0  0  0  0  0  0  0  0  0  0  0  0
    4.1274    0.4125    0.0000 C   0  0  0  0  0  0  0  0  0  0  0  0
    3.6425   -0.2549    0.0000 N   0  0  0  0  0  0  0  0  0  0  0  0
    2.8579   -0.0000    0.0000 C   0  0  0  0  0  0  0  0  0  0  0  0
    2.8579    0.8250    0.0000 C   0  0  0  0  0  0  0  0  0  0  0  0
    3.6425    1.0799    0.0000 S   0  0  0  0  0  0  0  0  0  0  0  0
    2.1434    1.2375    0.0000 C   0  0  0  0  0  0  0  0  0  0  0  0
    2.1434    2.0625    0.0000 O   0  0  0  0  0  0  0  0  0  0  0  0
    1.4289    0.8250    0.0000 C   0  0  0  0  0  0  0  0  0  0  0  0
    1.4289    0.0000    0.0000 C   0  0  0  0  0  0  0  0  0  0  0  0
    0.7145   -0.4125    0.0000 C   0  0  0  0  0  0  0  0  0  0  0  0
    0.0000   -0.0000    0.0000 C   0  0  0  0  0  0  0  0  0  0  0  0
    0.0000    0.8250    0.0000 C   0  0  0  0  0  0  0  0  0  0  0  0
    0.7145    1.2375    0.0000 C   0  0  0  0  0  0  0  0  0  0  0  0
    2.1434   -0.4125    0.0000 C   0  0  0  0  0  0  0  0  0  0  0  0
    2.1434   -1.2375    0.0000 O   0  0  0  0  0  0  0  0  0  0  0  0
  1  2  1  0  0  0  0
  2  3  1  0  0  0  0
  3  4  2  0  0  0  0
  5  3  1  6  0  0  0
  5  6  1  0  0  0  0
  7  6  1  0  0  0  0
  5  7  1  0  0  0  0
  7  8  1  1  0  0  0
  8  9  2  0  0  0  0
  8 10  1  0  0  0  0
 10 11  1  0  0  0  0
 10 12  1  0  0  0  0
 12 13  2  0  0  0  0
 13 14  1  0  0  0  0
 14 15  2  0  0  0  0
 15 16  1  0  0  0  0
 12 16  1  0  0  0  0
 15 17  1  0  0  0  0
 17 18  2  0  0  0  0
 17 19  1  0  0  0  0
 19 20  2  0  0  0  0
 20 21  1  0  0  0  0
 21 22  2  0  0  0  0
 22 23  1  0  0  0  0
 23 24  2  0  0  0  0
 19 24  1  0  0  0  0
 20 25  1  0  0  0  0
 14 25  1  0  0  0  0
 25 26  2  0  0  0  0
M  END
> <ID>
CPD_87

$$$$
CPD_92
  Mrv1822 09091914012D          

 30 31  0  0  0  0            999 V2000
    0.9375    0.8896    0.0000 C   0  0  0  0  0  0  0  0  0  0  0  0
    1.7055    0.5882    0.0000 C   0  0  0  0  0  0  0  0  0  0  0  0
    1.8284   -0.2276    0.0000 O   0  0  0  0  0  0  0  0  0  0  0  0
    2.3505    1.1026    0.0000 N   0  0  0  0  0  0  0  0  0  0  0  0
    2.1669    1.9069    0.0000 C   0  0  0  0  0  0  0  0  0  0  0  0
    2.6813    2.5519    0.0000 C   0  0  0  0  0  0  0  0  0  0  0  0
    3.5063    2.5519    0.0000 C   0  0  0  0  0  0  0  0  0  0  0  0
    4.0207    1.9069    0.0000 C   0  0  0  0  0  0  0  0  0  0  0  0
    3.8371    1.1026    0.0000 C   0  0  0  0  0  0  0  0  0  0  0  0
    3.0938    0.7446    0.0000 C   0  0  0  0  0  0  0  0  0  0  0  0
    3.0938   -0.0804    0.0000 C   0  0  0  0  0  0  0  0  0  0  0  0
    2.3793   -0.4929    0.0000 O   0  0  0  0  0  0  0  0  0  0  0  0
    3.8082   -0.4929    0.0000 N   0  0  0  0  0  0  0  0  0  0  0  0
    3.8082   -1.3179    0.0000 C   0  0  0  0  0  0  0  0  0  0  0  0
    4.5227   -1.7304    0.0000 C   0  0  0  0  0  0  0  0  0  0  0  0
    4.5227   -2.5554    0.0000 C   0  0  0  0  0  0  0  0  0  0  0  0
    3.8082   -2.9679    0.0000 C   0  0  0  0  0  0  0  0  0  0  0  0
    3.8082   -3.7929    0.0000 C   0  0  0  0  0  0  0  0  0  0  0  0
    4.5227   -4.2054    0.0000 O   0  0  0  0  0  0  0  0  0  0  0  0
    3.0938   -4.2054    0.0000 O   0  0  0  0  0  0  0  0  0  0  0  0
    3.0938   -2.5554    0.0000 C   0  0  0  0  0  0  0  0  0  0  0  0
    3.0938   -1.7304    0.0000 C   0  0  0  0  0  0  0  0  0  0  0  0
    2.3793   -2.9679    0.0000 C   0  0  0  0  0  0  0  0  0  0  0  0
    1.6648   -3.3804    0.0000 F   0  0  0  0  0  0  0  0  0  0  0  0
    1.9668   -2.2534    0.0000 F   0  0  0  0  0  0  0  0  0  0  0  0
    2.7918   -3.6823    0.0000 F   0  0  0  0  0  0  0  0  0  0  0  0
    4.5227   -0.0804    0.0000 S   0  0  0  0  0  0  0  0  0  0  0  0
    5.2372    0.3321    0.0000 C   0  0  0  0  0  0  0  0  0  0  0  0
    4.9352   -0.7948    0.0000 O   0  0  0  0  0  0  0  0  0  0  0  0
    4.1102    0.6341    0.0000 O   0  0  0  0  0  0  0  0  0  0  0  0
  1  2  1  0  0  0  0
  2  3  2  0  0  0  0
  2  4  1  0  0  0  0
  4  5  1  0  0  0  0
  5  6  1  0  0  0  0
  6  7  1  0  0  0  0
  7  8  1  0  0  0  0
  8  9  1  0  0  0  0
  9 10  1  0  0  0  0
  4 10  1  0  0  0  0
 10 11  1  0  0  0  0
 11 12  2  0  0  0  0
 11 13  1  0  0  0  0
 13 14  1  0  0  0  0
 14 15  2  0  0  0  0
 15 16  1  0  0  0  0
 16 17  2  0  0  0  0
 17 18  1  0  0  0  0
 18 19  1  0  0  0  0
 18 20  2  0  0  0  0
 17 21  1  0  0  0  0
 21 22  2  0  0  0  0
 14 22  1  0  0  0  0
 21 23  1  0  0  0  0
 23 24  1  0  0  0  0
 23 25  1  0  0  0  0
 23 26  1  0  0  0  0
 13 27  1  0  0  0  0
 27 28  1  0  0  0  0
 27 29  2  0  0  0  0
 27 30  2  0  0  0  0
M  END
> <ID>
CPD_92

$$$$
CPD_97
  Mrv1822 09091914012D          

 36 38  0  0  0  0            999 V2000
   -2.8579    4.9500    0.0000 C   0  0  0  0  0  0  0  0  0  0  0  0
   -2.1434    4.5375    0.0000 O   0  0  0  0  0  0  0  0  0  0  0  0
   -2.1434    3.7125    0.0000 C   0  0  0  0  0  0  0  0  0  0  0  0
   -1.4289    3.3000    0.0000 C   0  0  0  0  0  0  0  0  0  0  0  0
   -0.7145    3.7125    0.0000 O   0  0  0  0  0  0  0  0  0  0  0  0
   -0.0000    3.3000    0.0000 C   0  0  0  0  0  0  0  0  0  0  0  0
   -1.4289    2.4750    0.0000 C   0  0  0  0  0  0  0  0  0  0  0  0
   -2.1434    2.0625    0.0000 C   0  0  0  0  0  0  0  0  0  0  0  0
   -2.1434    1.2375    0.0000 C   0  0  0  0  0  0  0  0  0  0  0  0
   -1.4289    0.8250    0.0000 C   0  0  0  0  0  0  0  0  0  0  0  0
   -1.4289    0.0000    0.0000 C   0  0  0  0  0  0  0  0  0  0  0  0
   -2.1434   -0.4125    0.0000 O   0  0  0  0  0  0  0  0  0  0  0  0
   -0.7145   -0.4125    0.0000 N   0  0  0  0  0  0  0  0  0  0  0  0
   -0.7145   -1.2375    0.0000 C   0  0  0  0  0  0  0  0  0  0  0  0
    0.0000   -1.6500    0.0000 C   0  0  0  0  0  0  0  0  0  0  0  0
    0.0000   -2.4750    0.0000 C   0  0  0  0  0  0  0  0  0  0  0  0
   -0.7145   -2.8875    0.0000 C   0  0  0  0  0  0  0  0  0  0  0  0
   -0.7145   -3.7125    0.0000 C   0  0  0  0  0  0  0  0  0  0  0  0
    0.0000   -4.1250    0.0000 O   0  0  0  0  0  0  0  0  0  0  0  0
   -1.4289   -4.1250    0.0000 O   0  0  0  0  0  0  0  0  0  0  0  0
   -1.4289   -2.4750    0.0000 C   0  0  0  0  0  0  0  0  0  0  0  0
   -1.4289   -1.6500    0.0000 C   0  0  0  0  0  0  0  0  0  0  0  0
   -2.1434   -2.8875    0.0000 C   0  0  0  0  0  0  0  0  0  0  0  0
   -2.8579   -3.3000    0.0000 F   0  0  0  0  0  0  0  0  0  0  0  0
   -2.5559   -2.1730    0.0000 F   0  0  0  0  0  0  0  0  0  0  0  0
   -1.7309   -3.6020    0.0000 F   0  0  0  0  0  0  0  0  0  0  0  0
    0.0000    0.0000    0.0000 S   0  0  0  0  0  0  0  0  0  0  0  0
    0.4125   -0.7145    0.0000 C   0  0  0  0  0  0  0  0  0  0  0  0
   -0.4125    0.7145    0.0000 O   0  0  0  0  0  0  0  0  0  0  0  0
    0.7145    0.4125    0.0000 O   0  0  0  0  0  0  0  0  0  0  0  0
   -2.8579    0.8250    0.0000 C   0  0  0  0  0  0  0  0  0  0  0  0
   -3.5724    1.2375    0.0000 C   0  0  0  0  0  0  0  0  0  0  0  0
   -4.2868    0.8250    0.0000 O   0  0  0  0  0  0  0  0  0  0  0  0
   -3.5724    2.0625    0.0000 N   0  0  0  0  0  0  0  0  0  0  0  0
   -2.8579    2.4750    0.0000 C   0  0  0  0  0  0  0  0  0  0  0  0
   -2.8579    3.3000    0.0000 C   0  0  0  0  0  0  0  0  0  0  0  0
  1  2  1  0  0  0  0
  2  3  1  0  0  0  0
  3  4  2  0  0  0  0
  4  5  1  0  0  0  0
  5  6  1  0  0  0  0
  4  7  1  0  0  0  0
  7  8  2  0  0  0  0
  8  9  1  0  0  0  0
  9 10  1  0  0  0  0
 10 11  1  0  0  0  0
 11 12  2  0  0  0  0
 11 13  1  0  0  0  0
 13 14  1  0  0  0  0
 14 15  2  0  0  0  0
 15 16  1  0  0  0  0
 16 17  2  0  0  0  0
 17 18  1  0  0  0  0
 18 19  1  0  0  0  0
 18 20  2  0  0  0  0
 17 21  1  0  0  0  0
 21 22  2  0  0  0  0
 14 22  1  0  0  0  0
 21 23  1  0  0  0  0
 23 24  1  0  0  0  0
 23 25  1  0  0  0  0
 23 26  1  0  0  0  0
 13 27  1  0  0  0  0
 27 28  1  0  0  0  0
 27 29  2  0  0  0  0
 27 30  2  0  0  0  0
  9 31  1  0  0  0  0
 31 32  1  0  0  0  0
 32 33  2  0  0  0  0
 32 34  1  0  0  0  0
 34 35  1  0  0  0  0
  8 35  1  0  0  0  0
 35 36  2  0  0  0  0
  3 36  1  0  0  0  0
M  END
> <ID>
CPD_97

$$$$
CPD_102
  Mrv1822 09091914012D          

 32 34  0  0  0  0            999 V2000
   -1.3184    2.0625    0.0000 C   0  0  0  0  0  0  0  0  0  0  0  0
   -2.1434    2.0625    0.0000 S   0  0  0  0  0  0  0  0  0  0  0  0
   -2.9684    2.0625    0.0000 O   0  0  0  0  0  0  0  0  0  0  0  0
   -2.1434    2.8875    0.0000 O   0  0  0  0  0  0  0  0  0  0  0  0
   -2.1434    1.2375    0.0000 N   0  0  0  0  0  0  0  0  0  0  0  0
   -1.4289    0.8250    0.0000 C   0  0  0  0  0  0  0  0  0  0  0  0
   -0.7145    1.2375    0.0000 O   0  0  0  0  0  0  0  0  0  0  0  0
   -1.4289   -0.0000    0.0000 C   0  0  0  0  0  0  0  0  0  0  0  0
   -0.7145   -0.4125    0.0000 C   0  0  0  0  0  0  0  0  0  0  0  0
   -0.7145   -1.2375    0.0000 C   0  0  0  0  0  0  0  0  0  0  0  0
   -1.4289   -1.6500    0.0000 N   0  0  0  0  0  0  0  0  0  0  0  0
   -2.1434   -1.2375    0.0000 C   0  0  0  0  0  0  0  0  0  0  0  0
   -2.1434   -0.4125    0.0000 C   0  0  0  0  0  0  0  0  0  0  0  0
   -1.4289   -2.4750    0.0000 C   0  0  0  0  0  0  0  0  0  0  0  0
   -0.7145   -2.8875    0.0000 C   0  0  0  0  0  0  0  0  0  0  0  0
   -0.7145   -3.7125    0.0000 C   0  0  0  0  0  0  0  0  0  0  0  0
   -1.4289   -4.1250    0.0000 C   0  0  0  0  0  0  0  0  0  0  0  0
   -2.1434   -3.7125    0.0000 C   0  0  0  0  0  0  0  0  0  0  0  0
   -2.1434   -2.8875    0.0000 N   0  0  0  0  0  0  0  0  0  0  0  0
   -2.8579    0.8250    0.0000 C   0  0  0  0  0  0  0  0  0  0  0  0
   -2.8579   -0.0000    0.0000 C   0  0  0  0  0  0  0  0  0  0  0  0
   -3.5724   -0.4125    0.0000 C   0  0  0  0  0  0  0  0  0  0  0  0
   -4.2868   -0.0000    0.0000 C   0  0  0  0  0  0  0  0  0  0  0  0
   -5.0013   -0.4125    0.0000 C   0  0  0  0  0  0  0  0  0  0  0  0
   -5.0013   -1.2375    0.0000 O   0  0  0  0  0  0  0  0  0  0  0  0
   -5.7158    0.0000    0.0000 O   0  0  0  0  0  0  0  0  0  0  0  0
   -4.2868    0.8250    0.0000 C   0  0  0  0  0  0  0  0  0  0  0  0
   -3.5724    1.2375    0.0000 C   0  0  0  0  0  0  0  0  0  0  0  0
   -5.0013    1.2375    0.0000 C   0  0  0  0  0  0  0  0  0  0  0  0
   -5.7158    1.6500    0.0000 F   0  0  0  0  0  0  0  0  0  0  0  0
   -4.5888    1.9520    0.0000 F   0  0  0  0  0  0  0  0  0  0  0  0
   -5.4138    0.5230    0.0000 F   0  0  0  0  0  0  0  0  0  0  0  0
  1  2  1  0  0  0  0
  2  3  2  0  0  0  0
  2  4  2  0  0  0  0
  2  5  1  0  0  0  0
  5  6  1  0  0  0  0
  6  7  2  0  0  0  0
  6  8  1  0  0  0  0
  8  9  1  0  0  0  0
  9 10  1  0  0  0  0
 10 11  1  0  0  0  0
 11 12  1  0  0  0  0
 12 13  1  0  0  0  0
  8 13  1  0  0  0  0
 11 14  1  0  0  0  0
 14 15  2  0  0  0  0
 15 16  1  0  0  0  0
 16 17  2  0  0  0  0
 17 18  1  0  0  0  0
 18 19  2  0  0  0  0
 14 19  1  0  0  0  0
  5 20  1  0  0  0  0
 20 21  2  0  0  0  0
 21 22  1  0  0  0  0
 22 23  2  0  0  0  0
 23 24  1  0  0  0  0
 24 25  1  0  0  0  0
 24 26  2  0  0  0  0
 23 27  1  0  0  0  0
 27 28  2  0  0  0  0
 20 28  1  0  0  0  0
 27 29  1  0  0  0  0
 29 30  1  0  0  0  0
 29 31  1  0  0  0  0
 29 32  1  0  0  0  0
M  END
> <ID>
CPD_102

$$$$
CPD_107
  Mrv1822 09091914012D          

 31 33  0  0  0  0            999 V2000
    0.3967    1.8661    0.0000 C   0  0  0  0  0  0  0  0  0  0  0  0
    0.3795    0.9679    0.0000 S   0  0  0  0  0  0  0  0  0  0  0  0
    1.1659    1.4571    0.0000 O   0  0  0  0  0  0  0  0  0  0  0  0
    1.0405    0.4702    0.0000 O   0  0  0  0  0  0  0  0  0  0  0  0
   -0.4484    0.4293    0.0000 N   0  0  0  0  0  0  0  0  0  0  0  0
   -0.3898   -0.4739    0.0000 C   0  0  0  0  0  0  0  0  0  0  0  0
    0.3505   -0.9321    0.0000 O   0  0  0  0  0  0  0  0  0  0  0  0
   -1.1621   -0.9241    0.0000 C   0  0  0  0  0  0  0  0  0  0  0  0
   -1.5746   -1.6386    0.0000 C   0  0  0  0  0  0  0  0  0  0  0  0
   -0.7496   -1.6386    0.0000 C   0  0  0  0  0  0  0  0  0  0  0  0
   -1.7940   -0.3938    0.0000 C   0  0  0  0  0  0  0  0  0  0  0  0
   -1.6508    0.4187    0.0000 C   0  0  0  0  0  0  0  0  0  0  0  0
   -0.9072    0.9104    0.0000 F   0  0  0  0  0  0  0  0  0  0  0  0
   -2.2828    0.9490    0.0000 C   0  0  0  0  0  0  0  0  0  0  0  0
   -3.0580    0.6668    0.0000 C   0  0  0  0  0  0  0  0  0  0  0  0
   -3.2013   -0.1457    0.0000 C   0  0  0  0  0  0  0  0  0  0  0  0
   -2.5693   -0.6760    0.0000 C   0  0  0  0  0  0  0  0  0  0  0  0
   -2.9616   -1.4511    0.0000 Cl  0  0  0  0  0  0  0  0  0  0  0  0
   -1.4486    0.7008    0.0000 C   0  0  0  0  0  0  0  0  0  0  0  0
   -2.0806    0.1705    0.0000 C   0  0  0  0  0  0  0  0  0  0  0  0
   -2.8558    0.4527    0.0000 C   0  0  0  0  0  0  0  0  0  0  0  0
   -2.9991    1.2652    0.0000 C   0  0  0  0  0  0  0  0  0  0  0  0
   -3.7484    1.8480    0.0000 C   0  0  0  0  0  0  0  0  0  0  0  0
   -4.5752    1.4698    0.0000 O   0  0  0  0  0  0  0  0  0  0  0  0
   -4.0047    2.7871    0.0000 O   0  0  0  0  0  0  0  0  0  0  0  0
   -2.3671    1.7955    0.0000 C   0  0  0  0  0  0  0  0  0  0  0  0
   -1.5918    1.5133    0.0000 C   0  0  0  0  0  0  0  0  0  0  0  0
   -2.5290    2.7201    0.0000 C   0  0  0  0  0  0  0  0  0  0  0  0
   -2.7179    3.5928    0.0000 F   0  0  0  0  0  0  0  0  0  0  0  0
   -1.8414    3.2232    0.0000 F   0  0  0  0  0  0  0  0  0  0  0  0
   -3.3665    2.5573    0.0000 F   0  0  0  0  0  0  0  0  0  0  0  0
  1  2  1  0  0  0  0
  2  3  2  0  0  0  0
  2  4  2  0  0  0  0
  2  5  1  0  0  0  0
  5  6  1  0  0  0  0
  6  7  2  0  0  0  0
  6  8  1  0  0  0  0
  8  9  1  0  0  0  0
  9 10  1  0  0  0  0
  8 10  1  0  0  0  0
  8 11  1  0  0  0  0
 11 12  2  0  0  0  0
 12 13  1  0  0  0  0
 12 14  1  0  0  0  0
 14 15  2  0  0  0  0
 15 16  1  0  0  0  0
 16 17  2  0  0  0  0
 11 17  1  0  0  0  0
 17 18  1  0  0  0  0
  5 19  1  0  0  0  0
 19 20  2  0  0  0  0
 20 21  1  0  0  0  0
 21 22  2  0  0  0  0
 22 23  1  0  0  0  0
 23 24  1  0  0  0  0
 23 25  2  0  0  0  0
 22 26  1  0  0  0  0
 26 27  2  0  0  0  0
 19 27  1  0  0  0  0
 26 28  1  0  0  0  0
 28 29  1  0  0  0  0
 28 30  1  0  0  0  0
 28 31  1  0  0  0  0
M  END
> <ID>
CPD_107

$$$$
CPD_112
  Mrv1822 09091914012D          

 29 30  0  0  0  0            999 V2000
   -1.3184    2.0625    0.0000 C   0  0  0  0  0  0  0  0  0  0  0  0
   -2.1434    2.0625    0.0000 S   0  0  0  0  0  0  0  0  0  0  0  0
   -2.9684    2.0625    0.0000 O   0  0  0  0  0  0  0  0  0  0  0  0
   -2.1434    2.8875    0.0000 O   0  0  0  0  0  0  0  0  0  0  0  0
   -2.1434    1.2375    0.0000 N   0  0  0  0  0  0  0  0  0  0  0  0
   -1.4289    0.8250    0.0000 C   0  0  0  0  0  0  0  0  0  0  0  0
   -0.7145    1.2375    0.0000 O   0  0  0  0  0  0  0  0  0  0  0  0
   -1.4289   -0.0000    0.0000 C   0  0  0  0  0  0  0  0  0  0  0  0
   -0.7145   -0.4125    0.0000 C   0  0  0  0  0  0  0  0  0  0  0  0
    0.0000   -0.0000    0.0000 F   0  0  0  0  0  0  0  0  0  0  0  0
   -0.7145   -1.2375    0.0000 C   0  0  0  0  0  0  0  0  0  0  0  0
   -1.4289   -1.6500    0.0000 C   0  0  0  0  0  0  0  0  0  0  0  0
   -1.4289   -2.4750    0.0000 C   0  0  0  0  0  0  0  0  0  0  0  0
   -2.1434   -2.8875    0.0000 O   0  0  0  0  0  0  0  0  0  0  0  0
   -2.1434   -1.2375    0.0000 C   0  0  0  0  0  0  0  0  0  0  0  0
   -2.1434   -0.4125    0.0000 C   0  0  0  0  0  0  0  0  0  0  0  0
   -2.8579    0.8250    0.0000 C   0  0  0  0  0  0  0  0  0  0  0  0
   -2.8579   -0.0000    0.0000 C   0  0  0  0  0  0  0  0  0  0  0  0
   -3.5724   -0.4125    0.0000 C   0  0  0  0  0  0  0  0  0  0  0  0
   -4.2868   -0.0000    0.0000 C   0  0  0  0  0  0  0  0  0  0  0  0
   -5.0013   -0.4125    0.0000 C   0  0  0  0  0  0  0  0  0  0  0  0
   -5.0013   -1.2375    0.0000 O   0  0  0  0  0  0  0  0  0  0  0  0
   -5.7158    0.0000    0.0000 O   0  0  0  0  0  0  0  0  0  0  0  0
   -4.2868    0.8250    0.0000 C   0  0  0  0  0  0  0  0  0  0  0  0
   -3.5724    1.2375    0.0000 C   0  0  0  0  0  0  0  0  0  0  0  0
   -5.0013    1.2375    0.0000 C   0  0  0  0  0  0  0  0  0  0  0  0
   -5.7158    1.6500    0.0000 F   0  0  0  0  0  0  0  0  0  0  0  0
   -4.5888    1.9520    0.0000 F   0  0  0  0  0  0  0  0  0  0  0  0
   -5.4138    0.5230    0.0000 F   0  0  0  0  0  0  0  0  0  0  0  0
  1  2  1  0  0  0  0
  2  3  2  0  0  0  0
  2  4  2  0  0  0  0
  2  5  1  0  0  0  0
  5  6  1  0  0  0  0
  6  7  2  0  0  0  0
  6  8  1  0  0  0  0
  8  9  2  0  0  0  0
  9 10  1  0  0  0  0
  9 11  1  0  0  0  0
 11 12  2  0  0  0  0
 12 13  1  0  0  0  0
 13 14  1  0  0  0  0
 12 15  1  0  0  0  0
 15 16  2  0  0  0  0
  8 16  1  0  0  0  0
  5 17  1  0  0  0  0
 17 18  2  0  0  0  0
 18 19  1  0  0  0  0
 19 20  2  0  0  0  0
 20 21  1  0  0  0  0
 21 22  1  0  0  0  0
 21 23  2  0  0  0  0
 20 24  1  0  0  0  0
 24 25  2  0  0  0  0
 17 25  1  0  0  0  0
 24 26  1  0  0  0  0
 26 27  1  0  0  0  0
 26 28  1  0  0  0  0
 26 29  1  0  0  0  0
M  END
> <ID>
CPD_112

$$$$
CPD_117
  Mrv1822 09091914012D          

 34 39  0  0  0  0            999 V2000
   -1.4289   -4.1250    0.0000 C   0  0  0  0  0  0  0  0  0  0  0  0
   -0.7145   -3.7125    0.0000 N   0  0  0  0  0  0  0  0  0  0  0  0
   -0.7145   -2.8875    0.0000 C   0  0  0  0  0  0  0  0  0  0  0  0
    0.0000   -2.4750    0.0000 C   0  0  0  0  0  0  0  0  0  0  0  0
    0.7145   -2.8875    0.0000 N   0  0  0  0  0  0  0  0  0  0  0  0
    0.7145   -3.7125    0.0000 C   0  0  0  0  0  0  0  0  0  0  0  0
    0.0000   -4.1250    0.0000 C   0  0  0  0  0  0  0  0  0  0  0  0
    1.4289   -2.4750    0.0000 C   0  0  0  0  0  0  0  0  0  0  0  0
    1.4289   -1.6500    0.0000 C   0  0  0  0  0  0  0  0  0  0  0  0
    0.7145   -1.2375    0.0000 S   0  0  0  0  0  0  0  0  0  0  0  0
    0.7145   -0.4125    0.0000 C   0  0  0  0  0  0  0  0  0  0  0  0
    1.4289   -0.0000    0.0000 C   0  0  0  0  0  0  0  0  0  0  0  0
    2.1434   -0.4125    0.0000 N   0  0  0  0  0  0  0  0  0  0  0  0
    2.8579    0.0000    0.0000 C   0  0  0  0  0  0  0  0  0  0  0  0
    3.5724   -0.4125    0.0000 C   0  0  0  0  0  0  0  0  0  0  0  0
    4.2868   -0.0000    0.0000 C   0  0  0  0  0  0  0  0  0  0  0  0
    4.2868    0.8250    0.0000 O   0  0  0  0  0  0  0  0  0  0  0  0
    5.0013   -0.4125    0.0000 N   0  0  0  0  0  0  0  0  0  0  0  0
    5.7158   -0.0000    0.0000 C   0  0  0  0  0  0  0  0  0  0  0  0
    6.4302   -0.4125    0.0000 C   0  0  0  0  0  0  0  0  0  0  0  0
    6.4302   -1.2375    0.0000 N   0  0  0  0  0  0  0  0  0  0  0  0
    7.1447   -1.6500    0.0000 C   0  0  0  0  0  0  0  0  0  0  0  0
    7.1447   -2.4750    0.0000 C   0  0  0  0  0  0  0  0  0  0  0  0
    6.4302   -2.8875    0.0000 O   0  0  0  0  0  0  0  0  0  0  0  0
    5.7158   -2.4750    0.0000 C   0  0  0  0  0  0  0  0  0  0  0  0
    5.7158   -1.6500    0.0000 C   0  0  0  0  0  0  0  0  0  0  0  0
    5.0013   -1.2375    0.0000 C   0  0  0  0  0  0  0  0  0  0  0  0
    3.5724   -1.2375    0.0000 C   0  0  0  0  0  0  0  0  0  0  0  0
    4.2868   -1.6500    0.0000 O   0  0  0  0  0  0  0  0  0  0  0  0
    2.8579   -1.6500    0.0000 C   0  0  0  0  0  0  0  0  0  0  0  0
    2.8579   -2.4750    0.0000 C   0  0  0  0  0  0  0  0  0  0  0  0
    2.1434   -2.8875    0.0000 C   0  0  0  0  0  0  0  0  0  0  0  0
    2.1434   -3.7125    0.0000 F   0  0  0  0  0  0  0  0  0  0  0  0
    2.1434   -1.2375    0.0000 C   0  0  0  0  0  0  0  0  0  0  0  0
  1  2  1  0  0  0  0
  2  3  1  0  0  0  0
  3  4  1  0  0  0  0
  4  5  1  0  0  0  0
  5  6  1  0  0  0  0
  6  7  1  0  0  0  0
  2  7  1  0  0  0  0
  5  8  1  0  0  0  0
  8  9  2  0  0  0  0
  9 10  1  0  0  0  0
 10 11  1  0  0  0  0
 11 12  1  0  0  0  0
 12 13  1  0  0  0  0
 13 14  1  0  0  0  0
 14 15  2  0  0  0  0
 15 16  1  0  0  0  0
 16 17  2  0  0  0  0
 16 18  1  0  0  0  0
 18 19  1  0  0  0  0
 19 20  1  0  0  0  0
 20 21  1  0  0  0  0
 21 22  1  0  0  0  0
 22 23  1  0  0  0  0
 23 24  1  0  0  0  0
 24 25  1  0  0  0  0
 25 26  1  0  0  0  0
 21 26  1  0  0  0  0
 26 27  1  0  0  0  0
 18 27  1  0  0  0  0
 15 28  1  0  0  0  0
 28 29  2  0  0  0  0
 28 30  1  0  0  0  0
 30 31  1  0  0  0  0
 31 32  2  0  0  0  0
  8 32  1  0  0  0  0
 32 33  1  0  0  0  0
 30 34  2  0  0  0  0
  9 34  1  0  0  0  0
 13 34  1  0  0  0  0
M  END
> <ID>
CPD_117

$$$$
CPD_122
  Mrv1822 09091914012D          

 27 30  0  0  0  0            999 V2000
   -0.1712   -0.6979    0.0000 C   0  0  0  0  0  0  0  0  0  0  0  0
    0.6538   -0.6979    0.0000 C   0  0  0  0  0  0  0  0  0  0  0  0
    1.1387   -0.0305    0.0000 C   0  0  0  0  0  0  0  0  0  0  0  0
    1.9233   -0.2854    0.0000 N   0  0  0  0  0  0  0  0  0  0  0  0
    2.6378    0.1271    0.0000 C   0  0  0  0  0  0  0  0  0  0  0  0
    3.3523   -0.2854    0.0000 C   0  0  0  0  0  0  0  0  0  0  0  0
    3.3523   -1.1104    0.0000 C   0  0  0  0  0  0  0  0  0  0  0  0
    2.6378   -1.5229    0.0000 C   0  0  0  0  0  0  0  0  0  0  0  0
    2.6378   -2.3479    0.0000 C   0  0  0  0  0  0  0  0  0  0  0  0
    1.9233   -1.1104    0.0000 C   0  0  0  0  0  0  0  0  0  0  0  0
    1.1387   -1.3654    0.0000 N   0  0  0  0  0  0  0  0  0  0  0  0
    0.8838    0.7541    0.0000 C   0  0  0  0  0  0  0  0  0  0  0  0
    1.4358    1.3672    0.0000 O   0  0  0  0  0  0  0  0  0  0  0  0
    0.0768    0.9256    0.0000 N   0  0  0  0  0  0  0  0  0  0  0  0
   -0.5363    0.3736    0.0000 C   0  0  0  0  0  0  0  0  0  0  0  0
   -1.2508    0.7861    0.0000 C   0  0  0  0  0  0  0  0  0  0  0  0
   -1.0792    1.5931    0.0000 C   0  0  0  0  0  0  0  0  0  0  0  0
   -0.2587    1.6793    0.0000 C   0  0  0  0  0  0  0  0  0  0  0  0
   -0.2501    2.5043    0.0000 C   0  0  0  0  0  0  0  0  0  0  0  0
    0.0933    3.2544    0.0000 O   0  0  0  0  0  0  0  0  0  0  0  0
   -0.9602    2.9242    0.0000 O   0  0  0  0  0  0  0  0  0  0  0  0
    0.4514    2.0993    0.0000 C   0  0  0  0  0  0  0  0  0  0  0  0
    0.4427    2.9242    0.0000 C   0  0  0  0  0  0  0  0  0  0  0  0
    1.1528    3.3442    0.0000 C   0  0  0  0  0  0  0  0  0  0  0  0
    1.8716    2.9392    0.0000 C   0  0  0  0  0  0  0  0  0  0  0  0
    1.8802    2.1142    0.0000 C   0  0  0  0  0  0  0  0  0  0  0  0
    1.1701    1.6943    0.0000 C   0  0  0  0  0  0  0  0  0  0  0  0
  1  2  1  0  0  0  0
  2  3  2  0  0  0  0
  3  4  1  0  0  0  0
  4  5  1  0  0  0  0
  5  6  2  0  0  0  0
  6  7  1  0  0  0  0
  7  8  2  0  0  0  0
  8  9  1  0  0  0  0
  8 10  1  0  0  0  0
  4 10  1  0  0  0  0
 10 11  2  0  0  0  0
  2 11  1  0  0  0  0
  3 12  1  0  0  0  0
 12 13  2  0  0  0  0
 12 14  1  0  0  0  0
 14 15  1  0  0  0  0
 15 16  1  0  0  0  0
 16 17  1  0  0  0  0
 17 18  1  0  0  0  0
 14 18  1  0  0  0  0
 18 19  1  0  0  0  0
 19 20  1  0  0  0  0
 19 21  2  0  0  0  0
 18 22  1  0  0  0  0
 22 23  2  0  0  0  0
 23 24  1  0  0  0  0
 24 25  2  0  0  0  0
 25 26  1  0  0  0  0
 26 27  2  0  0  0  0
 22 27  1  0  0  0  0
M  END
> <ID>
CPD_122

$$$$
CPD_127
  Mrv1822 09091914012D          

 27 29  0  0  0  0            999 V2000
   -3.8045   -5.7512    0.0000 C   0  0  0  0  0  0  0  0  0  0  0  0
   -3.9760   -4.9442    0.0000 O   0  0  0  0  0  0  0  0  0  0  0  0
   -3.3630   -4.3922    0.0000 C   0  0  0  0  0  0  0  0  0  0  0  0
   -3.5345   -3.5852    0.0000 C   0  0  0  0  0  0  0  0  0  0  0  0
   -2.9214   -3.0332    0.0000 C   0  0  0  0  0  0  0  0  0  0  0  0
   -2.1368   -3.2881    0.0000 C   0  0  0  0  0  0  0  0  0  0  0  0
   -1.5237   -2.7361    0.0000 C   0  0  0  0  0  0  0  0  0  0  0  0
   -1.6952   -1.9291    0.0000 C   0  0  0  0  0  0  0  0  0  0  0  0
   -2.4798   -1.6742    0.0000 N   0  0  0  0  0  0  0  0  0  0  0  0
   -1.0821   -1.3771    0.0000 C   0  0  0  0  0  0  0  0  0  0  0  0
   -1.2536   -0.5701    0.0000 O   0  0  0  0  0  0  0  0  0  0  0  0
   -0.2975   -1.6320    0.0000 N   0  0  0  0  0  0  0  0  0  0  0  0
   -0.0425   -2.4167    0.0000 C   0  0  0  0  0  0  0  0  0  0  0  0
    0.7825   -2.4167    0.0000 C   0  0  0  0  0  0  0  0  0  0  0  0
    1.0374   -1.6320    0.0000 C   0  0  0  0  0  0  0  0  0  0  0  0
    0.3700   -1.1471    0.0000 C   0  0  0  0  0  0  0  0  0  0  0  0
    0.7750   -0.4284    0.0000 C   0  0  0  0  0  0  0  0  0  0  0  0
    1.5999   -0.4197    0.0000 O   0  0  0  0  0  0  0  0  0  0  0  0
    0.8526    0.3930    0.0000 O   0  0  0  0  0  0  0  0  0  0  0  0
   -0.0350   -0.4284    0.0000 C   0  0  0  0  0  0  0  0  0  0  0  0
   -0.8600   -0.4197    0.0000 C   0  0  0  0  0  0  0  0  0  0  0  0
   -1.2650    0.2990    0.0000 C   0  0  0  0  0  0  0  0  0  0  0  0
   -0.8450    1.0091    0.0000 C   0  0  0  0  0  0  0  0  0  0  0  0
   -0.0201    1.0005    0.0000 C   0  0  0  0  0  0  0  0  0  0  0  0
    0.3849    0.2817    0.0000 C   0  0  0  0  0  0  0  0  0  0  0  0
   -1.9652   -4.0951    0.0000 C   0  0  0  0  0  0  0  0  0  0  0  0
   -2.5783   -4.6471    0.0000 C   0  0  0  0  0  0  0  0  0  0  0  0
  1  2  1  0  0  0  0
  2  3  1  0  0  0  0
  3  4  2  0  0  0  0
  4  5  1  0  0  0  0
  5  6  2  0  0  0  0
  6  7  1  0  0  0  0
  7  8  1  0  0  0  0
  8  9  1  0  0  0  0
  8 10  1  0  0  0  0
 10 11  2  0  0  0  0
 10 12  1  0  0  0  0
 12 13  1  0  0  0  0
 13 14  1  0  0  0  0
 14 15  1  0  0  0  0
 15 16  1  0  0  0  0
 12 16  1  0  0  0  0
 16 17  1  0  0  0  0
 17 18  1  0  0  0  0
 17 19  2  0  0  0  0
 16 20  1  0  0  0  0
 20 21  2  0  0  0  0
 21 22  1  0  0  0  0
 22 23  2  0  0  0  0
 23 24  1  0  0  0  0
 24 25  2  0  0  0  0
 20 25  1  0  0  0  0
  6 26  1  0  0  0  0
 26 27  2  0  0  0  0
  3 27  1  0  0  0  0
M  END
> <ID>
CPD_127

$$$$
CPD_132
  Mrv1822 09091914012D          

 24 26  0  0  0  0            999 V2000
   -0.1749   -0.6157    0.0000 O   0  0  0  0  0  0  0  0  0  0  0  0
    0.6320   -0.4441    0.0000 C   0  0  0  0  0  0  0  0  0  0  0  0
    0.8870    0.3405    0.0000 O   0  0  0  0  0  0  0  0  0  0  0  0
    1.1841   -1.0572    0.0000 C   0  0  0  0  0  0  0  0  0  0  0  0
    1.8515   -1.5422    0.0000 C   0  0  0  0  0  0  0  0  0  0  0  0
    1.5966   -2.3268    0.0000 C   0  0  0  0  0  0  0  0  0  0  0  0
    0.7716   -2.3268    0.0000 C   0  0  0  0  0  0  0  0  0  0  0  0
    0.5166   -1.5422    0.0000 N   0  0  0  0  0  0  0  0  0  0  0  0
   -0.2680   -1.2872    0.0000 C   0  0  0  0  0  0  0  0  0  0  0  0
   -0.4395   -0.4803    0.0000 O   0  0  0  0  0  0  0  0  0  0  0  0
   -0.8811   -1.8393    0.0000 C   0  0  0  0  0  0  0  0  0  0  0  0
   -0.7096   -2.6462    0.0000 C   0  0  0  0  0  0  0  0  0  0  0  0
    0.0751   -2.9012    0.0000 Br  0  0  0  0  0  0  0  0  0  0  0  0
   -1.3227   -3.1983    0.0000 C   0  0  0  0  0  0  0  0  0  0  0  0
   -2.1073   -2.9433    0.0000 N   0  0  0  0  0  0  0  0  0  0  0  0
   -2.2788   -2.1364    0.0000 C   0  0  0  0  0  0  0  0  0  0  0  0
   -1.6657   -1.5843    0.0000 C   0  0  0  0  0  0  0  0  0  0  0  0
   -1.8372   -0.7773    0.0000 F   0  0  0  0  0  0  0  0  0  0  0  0
    1.7361   -0.4441    0.0000 C   0  0  0  0  0  0  0  0  0  0  0  0
    1.4812    0.3405    0.0000 C   0  0  0  0  0  0  0  0  0  0  0  0
    2.0332    0.9536    0.0000 C   0  0  0  0  0  0  0  0  0  0  0  0
    2.8402    0.7820    0.0000 C   0  0  0  0  0  0  0  0  0  0  0  0
    3.0951   -0.0026    0.0000 C   0  0  0  0  0  0  0  0  0  0  0  0
    2.5431   -0.6157    0.0000 C   0  0  0  0  0  0  0  0  0  0  0  0
  1  2  1  0  0  0  0
  2  3  2  0  0  0  0
  2  4  1  0  0  0  0
  4  5  1  0  0  0  0
  5  6  1  0  0  0  0
  6  7  1  0  0  0  0
  7  8  1  0  0  0  0
  4  8  1  0  0  0  0
  8  9  1  0  0  0  0
  9 10  2  0  0  0  0
  9 11  1  0  0  0  0
 11 12  2  0  0  0  0
 12 13  1  0  0  0  0
 12 14  1  0  0  0  0
 14 15  2  0  0  0  0
 15 16  1  0  0  0  0
 16 17  2  0  0  0  0
 11 17  1  0  0  0  0
 17 18  1  0  0  0  0
  4 19  1  0  0  0  0
 19 20  2  0  0  0  0
 20 21  1  0  0  0  0
 21 22  2  0  0  0  0
 22 23  1  0  0  0  0
 23 24  2  0  0  0  0
 19 24  1  0  0  0  0
M  END
> <ID>
CPD_132

$$$$
CPD_137
  Mrv1822 09091914012D          

 32 35  0  0  0  0            999 V2000
    6.2729   -0.4099    0.0000 C   0  0  0  0  0  0  0  0  0  0  0  0
    6.9874   -0.8224    0.0000 C   0  0  0  0  0  0  0  0  0  0  0  0
    6.9874   -1.6474    0.0000 O   0  0  0  0  0  0  0  0  0  0  0  0
    7.7019   -2.0599    0.0000 C   0  0  0  0  0  0  0  0  0  0  0  0
    8.4164   -1.6474    0.0000 O   0  0  0  0  0  0  0  0  0  0  0  0
    7.7019   -2.8849    0.0000 C   0  0  0  0  0  0  0  0  0  0  0  0
    8.3693   -3.3698    0.0000 C   0  0  0  0  0  0  0  0  0  0  0  0
    8.1144   -4.1544    0.0000 N   0  0  0  0  0  0  0  0  0  0  0  0
    7.2894   -4.1544    0.0000 C   0  0  0  0  0  0  0  0  0  0  0  0
    7.0344   -3.3698    0.0000 N   0  0  0  0  0  0  0  0  0  0  0  0
    9.1539   -3.1148    0.0000 C   0  0  0  0  0  0  0  0  0  0  0  0
    9.3255   -2.3079    0.0000 O   0  0  0  0  0  0  0  0  0  0  0  0
    9.7670   -3.6669    0.0000 N   0  0  0  0  0  0  0  0  0  0  0  0
   10.5517   -3.4119    0.0000 C   0  0  0  0  0  0  0  0  0  0  0  0
   10.8066   -2.6273    0.0000 N   0  0  0  0  0  0  0  0  0  0  0  0
   11.6316   -2.6273    0.0000 N   0  0  0  0  0  0  0  0  0  0  0  0
   11.8865   -3.4119    0.0000 C   0  0  0  0  0  0  0  0  0  0  0  0
   11.2191   -3.8969    0.0000 S   0  0  0  0  0  0  0  0  0  0  0  0
   12.6712   -3.6669    0.0000 C   0  0  0  0  0  0  0  0  0  0  0  0
   13.2843   -3.1148    0.0000 C   0  0  0  0  0  0  0  0  0  0  0  0
   14.0689   -3.3698    0.0000 C   0  0  0  0  0  0  0  0  0  0  0  0
   14.2404   -4.1768    0.0000 N   0  0  0  0  0  0  0  0  0  0  0  0
   13.6273   -4.7288    0.0000 C   0  0  0  0  0  0  0  0  0  0  0  0
   12.8427   -4.4738    0.0000 C   0  0  0  0  0  0  0  0  0  0  0  0
   15.0250   -4.4317    0.0000 C   0  0  0  0  0  0  0  0  0  0  0  0
   15.6381   -3.8797    0.0000 O   0  0  0  0  0  0  0  0  0  0  0  0
   15.1966   -5.2387    0.0000 C   0  0  0  0  0  0  0  0  0  0  0  0
   15.9812   -5.4936    0.0000 C   0  0  0  0  0  0  0  0  0  0  0  0
   16.1527   -6.3006    0.0000 C   0  0  0  0  0  0  0  0  0  0  0  0
   15.5396   -6.8526    0.0000 C   0  0  0  0  0  0  0  0  0  0  0  0
   14.7550   -6.5977    0.0000 C   0  0  0  0  0  0  0  0  0  0  0  0
   14.5835   -5.7907    0.0000 C   0  0  0  0  0  0  0  0  0  0  0  0
  1  2  1  0  0  0  0
  2  3  1  0  0  0  0
  3  4  1  0  0  0  0
  4  5  2  0  0  0  0
  4  6  1  0  0  0  0
  6  7  2  0  0  0  0
  7  8  1  0  0  0  0
  8  9  1  0  0  0  0
  9 10  2  0  0  0  0
  6 10  1  0  0  0  0
  7 11  1  0  0  0  0
 11 12  2  0  0  0  0
 11 13  1  0  0  0  0
 13 14  1  0  0  0  0
 14 15  2  0  0  0  0
 15 16  1  0  0  0  0
 16 17  2  0  0  0  0
 17 18  1  0  0  0  0
 14 18  1  0  0  0  0
 17 19  1  0  0  0  0
 19 20  1  0  0  0  0
 20 21  1  0  0  0  0
 21 22  1  0  0  0  0
 22 23  1  0  0  0  0
 23 24  1  0  0  0  0
 19 24  1  0  0  0  0
 22 25  1  0  0  0  0
 25 26  2  0  0  0  0
 25 27  1  0  0  0  0
 27 28  2  0  0  0  0
 28 29  1  0  0  0  0
 29 30  2  0  0  0  0
 30 31  1  0  0  0  0
 31 32  2  0  0  0  0
 27 32  1  0  0  0  0
M  END
> <ID>
CPD_137

$$$$
CPD_142
  Mrv1822 09091914012D          

 30 33  0  0  0  0            999 V2000
    6.3235    1.1759    0.0000 O   0  0  0  0  0  0  0  0  0  0  0  0
    5.6091    0.7634    0.0000 C   0  0  0  0  0  0  0  0  0  0  0  0
    5.6091   -0.0616    0.0000 C   0  0  0  0  0  0  0  0  0  0  0  0
    4.8946   -0.4741    0.0000 C   0  0  0  0  0  0  0  0  0  0  0  0
    4.1801   -0.0616    0.0000 C   0  0  0  0  0  0  0  0  0  0  0  0
    4.1801    0.7634    0.0000 C   0  0  0  0  0  0  0  0  0  0  0  0
    3.4656    1.1759    0.0000 O   0  0  0  0  0  0  0  0  0  0  0  0
    4.8946    1.1759    0.0000 C   0  0  0  0  0  0  0  0  0  0  0  0
    4.8946   -1.2991    0.0000 C   0  0  0  0  0  0  0  0  0  0  0  0
    5.6091   -1.7116    0.0000 O   0  0  0  0  0  0  0  0  0  0  0  0
    4.1801   -1.7116    0.0000 N   0  0  0  0  0  0  0  0  0  0  0  0
    4.1801   -2.5366    0.0000 C   0  0  0  0  0  0  0  0  0  0  0  0
    4.8476   -3.0215    0.0000 N   0  0  0  0  0  0  0  0  0  0  0  0
    4.5926   -3.8062    0.0000 N   0  0  0  0  0  0  0  0  0  0  0  0
    3.7676   -3.8062    0.0000 C   0  0  0  0  0  0  0  0  0  0  0  0
    3.5127   -3.0215    0.0000 S   0  0  0  0  0  0  0  0  0  0  0  0
    3.2827   -4.4736    0.0000 C   0  0  0  0  0  0  0  0  0  0  0  0
    3.6183   -5.2273    0.0000 C   0  0  0  0  0  0  0  0  0  0  0  0
    3.1333   -5.8947    0.0000 C   0  0  0  0  0  0  0  0  0  0  0  0
    2.3129   -5.8085    0.0000 N   0  0  0  0  0  0  0  0  0  0  0  0
    1.9773   -5.0548    0.0000 C   0  0  0  0  0  0  0  0  0  0  0  0
    2.4622   -4.3874    0.0000 C   0  0  0  0  0  0  0  0  0  0  0  0
    1.8279   -6.4759    0.0000 C   0  0  0  0  0  0  0  0  0  0  0  0
    2.1635   -7.2296    0.0000 O   0  0  0  0  0  0  0  0  0  0  0  0
    1.0074   -6.3897    0.0000 C   0  0  0  0  0  0  0  0  0  0  0  0
    0.5225   -7.0571    0.0000 C   0  0  0  0  0  0  0  0  0  0  0  0
   -0.2980   -6.9709    0.0000 C   0  0  0  0  0  0  0  0  0  0  0  0
   -0.6335   -6.2172    0.0000 C   0  0  0  0  0  0  0  0  0  0  0  0
   -0.1486   -5.5498    0.0000 C   0  0  0  0  0  0  0  0  0  0  0  0
    0.6719   -5.6360    0.0000 C   0  0  0  0  0  0  0  0  0  0  0  0
  1  2  1  0  0  0  0
  2  3  2  0  0  0  0
  3  4  1  0  0  0  0
  4  5  2  0  0  0  0
  5  6  1  0  0  0  0
  6  7  1  0  0  0  0
  6  8  2  0  0  0  0
  2  8  1  0  0  0  0
  4  9  1  0  0  0  0
  9 10  2  0  0  0  0
  9 11  1  0  0  0  0
 11 12  1  0  0  0  0
 12 13  2  0  0  0  0
 13 14  1  0  0  0  0
 14 15  2  0  0  0  0
 15 16  1  0  0  0  0
 12 16  1  0  0  0  0
 15 17  1  0  0  0  0
 17 18  1  0  0  0  0
 18 19  1  0  0  0  0
 19 20  1  0  0  0  0
 20 21  1  0  0  0  0
 21 22  1  0  0  0  0
 17 22  1  0  0  0  0
 20 23  1  0  0  0  0
 23 24  2  0  0  0  0
 23 25  1  0  0  0  0
 25 26  2  0  0  0  0
 26 27  1  0  0  0  0
 27 28  2  0  0  0  0
 28 29  1  0  0  0  0
 29 30  2  0  0  0  0
 25 30  1  0  0  0  0
M  END
> <ID>
CPD_142

$$$$
CPD_147
  Mrv1822 09091914012D          

 33 37  0  0  0  0            999 V2000
    0.0000    0.8250    0.0000 C   0  0  0  0  0  0  0  0  0  0  0  0
    0.0000   -0.0000    0.0000 N   0  0  0  0  0  0  0  0  0  0  0  0
   -0.7145   -0.4125    0.0000 C   0  0  0  0  0  0  0  0  0  0  0  0
   -0.7145   -1.2375    0.0000 C   0  0  0  0  0  0  0  0  0  0  0  0
    0.0000   -1.6500    0.0000 O   0  0  0  0  0  0  0  0  0  0  0  0
    0.7145   -1.2375    0.0000 C   0  0  0  0  0  0  0  0  0  0  0  0
    0.7145   -0.4125    0.0000 C   0  0  0  0  0  0  0  0  0  0  0  0
    1.4289   -0.0000    0.0000 C   0  0  0  0  0  0  0  0  0  0  0  0
    2.1434   -0.4125    0.0000 C   0  0  0  0  0  0  0  0  0  0  0  0
    2.1434   -1.2375    0.0000 C   0  0  0  0  0  0  0  0  0  0  0  0
    1.4289   -1.6500    0.0000 C   0  0  0  0  0  0  0  0  0  0  0  0
    2.8579   -1.6500    0.0000 C   0  0  0  0  0  0  0  0  0  0  0  0
    3.5724   -1.2375    0.0000 O   0  0  0  0  0  0  0  0  0  0  0  0
    2.8579   -2.4750    0.0000 N   0  0  0  0  0  0  0  0  0  0  0  0
    3.5724   -2.8875    0.0000 C   0  0  0  0  0  0  0  0  0  0  0  0
    4.3260   -2.5519    0.0000 N   0  0  0  0  0  0  0  0  0  0  0  0
    4.8781   -3.1650    0.0000 N   0  0  0  0  0  0  0  0  0  0  0  0
    4.4656   -3.8795    0.0000 C   0  0  0  0  0  0  0  0  0  0  0  0
    3.6586   -3.7080    0.0000 S   0  0  0  0  0  0  0  0  0  0  0  0
    4.8011   -4.6332    0.0000 C   0  0  0  0  0  0  0  0  0  0  0  0
    5.6216   -4.7194    0.0000 C   0  0  0  0  0  0  0  0  0  0  0  0
    5.9572   -5.4731    0.0000 C   0  0  0  0  0  0  0  0  0  0  0  0
    5.4722   -6.1405    0.0000 N   0  0  0  0  0  0  0  0  0  0  0  0
    4.6518   -6.0543    0.0000 C   0  0  0  0  0  0  0  0  0  0  0  0
    4.3162   -5.3006    0.0000 C   0  0  0  0  0  0  0  0  0  0  0  0
    5.8078   -6.8942    0.0000 C   0  0  0  0  0  0  0  0  0  0  0  0
    6.6283   -6.9804    0.0000 O   0  0  0  0  0  0  0  0  0  0  0  0
    5.3229   -7.5616    0.0000 C   0  0  0  0  0  0  0  0  0  0  0  0
    5.6584   -8.3153    0.0000 C   0  0  0  0  0  0  0  0  0  0  0  0
    5.1735   -8.9828    0.0000 C   0  0  0  0  0  0  0  0  0  0  0  0
    4.3530   -8.8965    0.0000 C   0  0  0  0  0  0  0  0  0  0  0  0
    4.0175   -8.1428    0.0000 C   0  0  0  0  0  0  0  0  0  0  0  0
    4.5024   -7.4754    0.0000 C   0  0  0  0  0  0  0  0  0  0  0  0
  1  2  1  0  0  0  0
  2  3  1  0  0  0  0
  3  4  1  0  0  0  0
  4  5  1  0  0  0  0
  5  6  1  0  0  0  0
  6  7  2  0  0  0  0
  2  7  1  0  0  0  0
  7  8  1  0  0  0  0
  8  9  2  0  0  0  0
  9 10  1  0  0  0  0
 10 11  2  0  0  0  0
  6 11  1  0  0  0  0
 10 12  1  0  0  0  0
 12 13  2  0  0  0  0
 12 14  1  0  0  0  0
 14 15  1  0  0  0  0
 15 16  2  0  0  0  0
 16 17  1  0  0  0  0
 17 18  2  0  0  0  0
 18 19  1  0  0  0  0
 15 19  1  0  0  0  0
 18 20  1  0  0  0  0
 20 21  1  0  0  0  0
 21 22  1  0  0  0  0
 22 23  1  0  0  0  0
 23 24  1  0  0  0  0
 24 25  1  0  0  0  0
 20 25  1  0  0  0  0
 23 26  1  0  0  0  0
 26 27  2  0  0  0  0
 26 28  1  0  0  0  0
 28 29  2  0  0  0  0
 29 30  1  0  0  0  0
 30 31  2  0  0  0  0
 31 32  1  0  0  0  0
 32 33  2  0  0  0  0
 28 33  1  0  0  0  0
M  END
> <ID>
CPD_147

$$$$
CPD_152
  Mrv1822 09091914012D          

 29 31  0  0  0  0            999 V2000
   -0.7145   -3.7125    0.0000 C   0  0  0  0  0  0  0  0  0  0  0  0
   -1.4289   -4.1250    0.0000 O   0  0  0  0  0  0  0  0  0  0  0  0
   -1.4289   -4.9500    0.0000 C   0  0  0  0  0  0  0  0  0  0  0  0
   -0.7145   -5.3625    0.0000 C   0  0  0  0  0  0  0  0  0  0  0  0
   -0.7145   -6.1875    0.0000 C   0  0  0  0  0  0  0  0  0  0  0  0
   -1.4289   -6.6000    0.0000 C   0  0  0  0  0  0  0  0  0  0  0  0
   -2.1434   -6.1875    0.0000 C   0  0  0  0  0  0  0  0  0  0  0  0
   -2.8579   -6.6000    0.0000 F   0  0  0  0  0  0  0  0  0  0  0  0
   -2.1434   -5.3625    0.0000 C   0  0  0  0  0  0  0  0  0  0  0  0
   -2.8579   -4.9500    0.0000 N   0  0  0  0  0  0  0  0  0  0  0  0
   -3.5724   -5.3625    0.0000 C   0  0  0  0  0  0  0  0  0  0  0  0
   -2.8579   -4.1250    0.0000 C   0  0  0  0  0  0  0  0  0  0  0  0
   -2.1434   -3.7125    0.0000 O   0  0  0  0  0  0  0  0  0  0  0  0
   -3.5724   -3.7125    0.0000 C   0  0  0  0  0  0  0  0  0  0  0  0
   -3.5724   -2.8875    0.0000 C   0  0  0  0  0  0  0  0  0  0  0  0
   -4.2868   -2.4750    0.0000 C   0  0  0  0  0  0  0  0  0  0  0  0
   -4.2868   -1.6500    0.0000 C   0  0  0  0  0  0  0  0  0  0  0  0
   -3.5724   -1.2375    0.0000 C   0  0  0  0  0  0  0  0  0  0  0  0
   -2.8579   -1.6500    0.0000 C   0  0  0  0  0  0  0  0  0  0  0  0
   -2.8579   -2.4750    0.0000 C   0  0  0  0  0  0  0  0  0  0  0  0
   -5.0013   -1.2375    0.0000 C   0  0  0  0  0  0  0  0  0  0  0  0
   -5.7158   -1.6500    0.0000 C   0  0  0  0  0  0  0  0  0  0  0  0
   -6.4302   -1.2375    0.0000 C   0  0  0  0  0  0  0  0  0  0  0  0
   -6.4302   -0.4125    0.0000 C   0  0  0  0  0  0  0  0  0  0  0  0
   -7.1447    0.0000    0.0000 F   0  0  0  0  0  0  0  0  0  0  0  0
   -5.7158   -0.0000    0.0000 C   0  0  0  0  0  0  0  0  0  0  0  0
   -5.0013   -0.4125    0.0000 C   0  0  0  0  0  0  0  0  0  0  0  0
   -4.2868   -0.0000    0.0000 O   0  0  0  0  0  0  0  0  0  0  0  0
   -3.5724   -0.4125    0.0000 C   0  0  0  0  0  0  0  0  0  0  0  0
  1  2  1  0  0  0  0
  2  3  1  0  0  0  0
  3  4  2  0  0  0  0
  4  5  1  0  0  0  0
  5  6  2  0  0  0  0
  6  7  1  0  0  0  0
  7  8  1  0  0  0  0
  7  9  2  0  0  0  0
  3  9  1  0  0  0  0
  9 10  1  0  0  0  0
 10 11  1  0  0  0  0
 10 12  1  0  0  0  0
 12 13  2  0  0  0  0
 12 14  1  0  0  0  0
 14 15  1  0  0  0  0
 15 16  2  0  0  0  0
 16 17  1  0  0  0  0
 17 18  2  0  0  0  0
 18 19  1  0  0  0  0
 19 20  2  0  0  0  0
 15 20  1  0  0  0  0
 17 21  1  0  0  0  0
 21 22  2  0  0  0  0
 22 23  1  0  0  0  0
 23 24  2  0  0  0  0
 24 25  1  0  0  0  0
 24 26  1  0  0  0  0
 26 27  2  0  0  0  0
 21 27  1  0  0  0  0
 27 28  1  0  0  0  0
 28 29  1  0  0  0  0
M  END
> <ID>
CPD_152

$$$$
CPD_157
  Mrv1822 09091914012D          

 24 25  0  0  0  0            999 V2000
   -0.7145   -0.4125    0.0000 C   0  0  0  0  0  0  0  0  0  0  0  0
   -0.7145   -1.2375    0.0000 O   0  0  0  0  0  0  0  0  0  0  0  0
    0.0000   -1.6500    0.0000 C   0  0  0  0  0  0  0  0  0  0  0  0
    0.7145   -1.2375    0.0000 O   0  0  0  0  0  0  0  0  0  0  0  0
    0.0000   -2.4750    0.0000 C   0  0  0  0  0  0  0  0  0  0  0  0
    0.6674   -2.9599    0.0000 C   0  0  0  0  0  0  0  0  0  0  0  0
    1.4521   -2.7050    0.0000 O   0  0  0  0  0  0  0  0  0  0  0  0
    2.0652   -3.2570    0.0000 C   0  0  0  0  0  0  0  0  0  0  0  0
    0.4125   -3.7445    0.0000 C   0  0  0  0  0  0  0  0  0  0  0  0
   -0.4125   -3.7445    0.0000 N   0  0  0  0  0  0  0  0  0  0  0  0
   -0.6674   -2.9599    0.0000 O   0  0  0  0  0  0  0  0  0  0  0  0
    0.8974   -4.4120    0.0000 C   0  0  0  0  0  0  0  0  0  0  0  0
    1.7179   -4.3257    0.0000 O   0  0  0  0  0  0  0  0  0  0  0  0
    0.5619   -5.1657    0.0000 N   0  0  0  0  0  0  0  0  0  0  0  0
   -0.2586   -5.2519    0.0000 C   0  0  0  0  0  0  0  0  0  0  0  0
    1.0468   -5.8331    0.0000 C   0  0  0  0  0  0  0  0  0  0  0  0
    1.8673   -5.7469    0.0000 C   0  0  0  0  0  0  0  0  0  0  0  0
    2.2028   -4.9932    0.0000 F   0  0  0  0  0  0  0  0  0  0  0  0
    2.3522   -6.4143    0.0000 C   0  0  0  0  0  0  0  0  0  0  0  0
    2.0166   -7.1680    0.0000 C   0  0  0  0  0  0  0  0  0  0  0  0
    1.1962   -7.2542    0.0000 C   0  0  0  0  0  0  0  0  0  0  0  0
    0.7112   -6.5868    0.0000 C   0  0  0  0  0  0  0  0  0  0  0  0
   -0.1093   -6.6730    0.0000 O   0  0  0  0  0  0  0  0  0  0  0  0
   -0.5942   -6.0056    0.0000 C   0  0  0  0  0  0  0  0  0  0  0  0
  1  2  1  0  0  0  0
  2  3  1  0  0  0  0
  3  4  2  0  0  0  0
  3  5  1  0  0  0  0
  5  6  2  0  0  0  0
  6  7  1  0  0  0  0
  7  8  1  0  0  0  0
  6  9  1  0  0  0  0
  9 10  2  0  0  0  0
 10 11  1  0  0  0  0
  5 11  1  0  0  0  0
  9 12  1  0  0  0  0
 12 13  2  0  0  0  0
 12 14  1  0  0  0  0
 14 15  1  0  0  0  0
 14 16  1  0  0  0  0
 16 17  2  0  0  0  0
 17 18  1  0  0  0  0
 17 19  1  0  0  0  0
 19 20  2  0  0  0  0
 20 21  1  0  0  0  0
 21 22  2  0  0  0  0
 16 22  1  0  0  0  0
 22 23  1  0  0  0  0
 23 24  1  0  0  0  0
M  END
> <ID>
CPD_157

$$$$
CPD_162
  Mrv1822 09091914012D          

 21 22  0  0  0  0            999 V2000
    3.5724   -1.2375    0.0000 C   0  0  0  0  0  0  0  0  0  0  0  0
    2.8579   -1.6500    0.0000 O   0  0  0  0  0  0  0  0  0  0  0  0
    2.8579   -2.4750    0.0000 C   0  0  0  0  0  0  0  0  0  0  0  0
    3.5724   -2.8875    0.0000 C   0  0  0  0  0  0  0  0  0  0  0  0
    3.5724   -3.7125    0.0000 C   0  0  0  0  0  0  0  0  0  0  0  0
    2.8579   -4.1250    0.0000 C   0  0  0  0  0  0  0  0  0  0  0  0
    2.1434   -3.7125    0.0000 C   0  0  0  0  0  0  0  0  0  0  0  0
    1.4289   -4.1250    0.0000 F   0  0  0  0  0  0  0  0  0  0  0  0
    2.1434   -2.8875    0.0000 C   0  0  0  0  0  0  0  0  0  0  0  0
    1.4289   -2.4750    0.0000 N   0  0  0  0  0  0  0  0  0  0  0  0
    0.7145   -2.8875    0.0000 C   0  0  0  0  0  0  0  0  0  0  0  0
    1.4289   -1.6500    0.0000 C   0  0  0  0  0  0  0  0  0  0  0  0
    2.1434   -1.2375    0.0000 O   0  0  0  0  0  0  0  0  0  0  0  0
    0.7145   -1.2375    0.0000 C   0  0  0  0  0  0  0  0  0  0  0  0
    0.7145   -0.4125    0.0000 C   0  0  0  0  0  0  0  0  0  0  0  0
    0.0000    0.0000    0.0000 C   0  0  0  0  0  0  0  0  0  0  0  0
   -0.7145   -0.4125    0.0000 F   0  0  0  0  0  0  0  0  0  0  0  0
    0.0000    0.8250    0.0000 C   0  0  0  0  0  0  0  0  0  0  0  0
    0.7145    1.2375    0.0000 C   0  0  0  0  0  0  0  0  0  0  0  0
    1.4289    0.8250    0.0000 C   0  0  0  0  0  0  0  0  0  0  0  0
    1.4289    0.0000    0.0000 C   0  0  0  0  0  0  0  0  0  0  0  0
  1  2  1  0  0  0  0
  2  3  1  0  0  0  0
  3  4  2  0  0  0  0
  4  5  1  0  0  0  0
  5  6  2  0  0  0  0
  6  7  1  0  0  0  0
  7  8  1  0  0  0  0
  7  9  2  0  0  0  0
  3  9  1  0  0  0  0
  9 10  1  0  0  0  0
 10 11  1  0  0  0  0
 10 12  1  0  0  0  0
 12 13  2  0  0  0  0
 12 14  1  0  0  0  0
 14 15  1  0  0  0  0
 15 16  2  0  0  0  0
 16 17  1  0  0  0  0
 16 18  1  0  0  0  0
 18 19  2  0  0  0  0
 19 20  1  0  0  0  0
 20 21  2  0  0  0  0
 15 21  1  0  0  0  0
M  END
> <ID>
CPD_162

$$$$
CPD_167
  Mrv1822 09091914012D          

 21 23  0  0  1  0            999 V2000
    3.5724    1.2375    0.0000 C   0  0  0  0  0  0  0  0  0  0  0  0
    2.8579    0.8250    0.0000 O   0  0  0  0  0  0  0  0  0  0  0  0
    2.1434    1.2375    0.0000 C   0  0  0  0  0  0  0  0  0  0  0  0
    1.4289    0.8250    0.0000 C   0  0  0  0  0  0  0  0  0  0  0  0
    1.4289   -0.0000    0.0000 N   0  0  0  0  0  0  0  0  0  0  0  0
    0.7145   -0.4125    0.0000 C   0  0  0  0  0  0  0  0  0  0  0  0
    0.0000    0.0000    0.0000 O   0  0  0  0  0  0  0  0  0  0  0  0
    0.7145   -1.2375    0.0000 C   0  0  2  0  0  0  0  0  0  0  0  0
    1.1270   -1.9520    0.0000 C   0  0  0  0  0  0  0  0  0  0  0  0
    0.3020   -1.9520    0.0000 C   0  0  1  0  0  0  0  0  0  0  0  0
   -0.4125   -2.3645    0.0000 C   0  0  0  0  0  0  0  0  0  0  0  0
   -0.4125   -3.1895    0.0000 C   0  0  0  0  0  0  0  0  0  0  0  0
   -1.1270   -3.6020    0.0000 C   0  0  0  0  0  0  0  0  0  0  0  0
   -1.8414   -3.1895    0.0000 C   0  0  0  0  0  0  0  0  0  0  0  0
   -1.8414   -2.3645    0.0000 C   0  0  0  0  0  0  0  0  0  0  0  0
   -1.1270   -1.9520    0.0000 C   0  0  0  0  0  0  0  0  0  0  0  0
    0.7145    1.2375    0.0000 C   0  0  0  0  0  0  0  0  0  0  0  0
    0.0000    0.8250    0.0000 Cl  0  0  0  0  0  0  0  0  0  0  0  0
    0.7145    2.0625    0.0000 C   0  0  0  0  0  0  0  0  0  0  0  0
    1.4289    2.4750    0.0000 C   0  0  0  0  0  0  0  0  0  0  0  0
    2.1434    2.0625    0.0000 C   0  0  0  0  0  0  0  0  0  0  0  0
  1  2  1  0  0  0  0
  2  3  1  0  0  0  0
  3  4  2  0  0  0  0
  4  5  1  0  0  0  0
  5  6  1  0  0  0  0
  6  7  2  0  0  0  0
  8  6  1  6  0  0  0
  8  9  1  0  0  0  0
 10  9  1  0  0  0  0
  8 10  1  0  0  0  0
 10 11  1  1  0  0  0
 11 12  2  0  0  0  0
 12 13  1  0  0  0  0
 13 14  2  0  0  0  0
 14 15  1  0  0  0  0
 15 16  2  0  0  0  0
 11 16  1  0  0  0  0
  4 17  1  0  0  0  0
 17 18  1  0  0  0  0
 17 19  2  0  0  0  0
 19 20  1  0  0  0  0
 20 21  2  0  0  0  0
  3 21  1  0  0  0  0
M  END
> <ID>
CPD_167

$$$$
CPD_172
  Mrv1822 09091914012D          

 21 22  0  0  0  0            999 V2000
    0.7145   -0.4125    0.0000 C   0  0  0  0  0  0  0  0  0  0  0  0
    0.7145   -1.2375    0.0000 C   0  0  0  0  0  0  0  0  0  0  0  0
    1.4289   -1.6500    0.0000 O   0  0  0  0  0  0  0  0  0  0  0  0
    1.4289   -2.4750    0.0000 C   0  0  0  0  0  0  0  0  0  0  0  0
    2.1434   -2.8875    0.0000 C   0  0  0  0  0  0  0  0  0  0  0  0
    2.1434   -3.7125    0.0000 C   0  0  0  0  0  0  0  0  0  0  0  0
    1.4289   -4.1250    0.0000 C   0  0  0  0  0  0  0  0  0  0  0  0
    0.7145   -3.7125    0.0000 C   0  0  0  0  0  0  0  0  0  0  0  0
    0.7145   -2.8875    0.0000 C   0  0  0  0  0  0  0  0  0  0  0  0
    1.4289   -4.9500    0.0000 C   0  0  0  0  0  0  0  0  0  0  0  0
    0.7145   -5.3625    0.0000 O   0  0  0  0  0  0  0  0  0  0  0  0
    2.1434   -5.3625    0.0000 N   0  0  0  0  0  0  0  0  0  0  0  0
    2.1434   -6.1875    0.0000 C   0  0  0  0  0  0  0  0  0  0  0  0
    2.8579   -6.6000    0.0000 C   0  0  0  0  0  0  0  0  0  0  0  0
    3.5724   -6.1875    0.0000 O   0  0  0  0  0  0  0  0  0  0  0  0
    4.2868   -6.6000    0.0000 C   0  0  0  0  0  0  0  0  0  0  0  0
    2.8579   -7.4250    0.0000 C   0  0  0  0  0  0  0  0  0  0  0  0
    2.1434   -7.8375    0.0000 C   0  0  0  0  0  0  0  0  0  0  0  0
    1.4289   -7.4250    0.0000 C   0  0  0  0  0  0  0  0  0  0  0  0
    1.4289   -6.6000    0.0000 C   0  0  0  0  0  0  0  0  0  0  0  0
    0.7145   -6.1875    0.0000 Cl  0  0  0  0  0  0  0  0  0  0  0  0
  1  2  1  0  0  0  0
  2  3  1  0  0  0  0
  3  4  1  0  0  0  0
  4  5  2  0  0  0  0
  5  6  1  0  0  0  0
  6  7  2  0  0  0  0
  7  8  1  0  0  0  0
  8  9  2  0  0  0  0
  4  9  1  0  0  0  0
  7 10  1  0  0  0  0
 10 11  2  0  0  0  0
 10 12  1  0  0  0  0
 12 13  1  0  0  0  0
 13 14  2  0  0  0  0
 14 15  1  0  0  0  0
 15 16  1  0  0  0  0
 14 17  1  0  0  0  0
 17 18  2  0  0  0  0
 18 19  1  0  0  0  0
 19 20  2  0  0  0  0
 13 20  1  0  0  0  0
 20 21  1  0  0  0  0
M  END
> <ID>
CPD_172

$$$$
CPD_177
  Mrv1822 09091914012D          

 27 29  0  0  0  0            999 V2000
   -5.7158   -4.1250    0.0000 C   0  0  0  0  0  0  0  0  0  0  0  0
   -5.0013   -3.7125    0.0000 C   0  0  0  0  0  0  0  0  0  0  0  0
   -5.0013   -2.8875    0.0000 C   0  0  0  0  0  0  0  0  0  0  0  0
   -5.7158   -2.4750    0.0000 O   0  0  0  0  0  0  0  0  0  0  0  0
   -4.2868   -2.4750    0.0000 C   0  0  0  0  0  0  0  0  0  0  0  0
   -4.2868   -1.6500    0.0000 C   0  0  0  0  0  0  0  0  0  0  0  0
   -5.0013   -1.2375    0.0000 O   0  0  0  0  0  0  0  0  0  0  0  0
   -3.5724   -1.2375    0.0000 C   0  0  0  0  0  0  0  0  0  0  0  0
   -2.8579   -1.6500    0.0000 C   0  0  0  0  0  0  0  0  0  0  0  0
   -2.8579   -2.4750    0.0000 C   0  0  0  0  0  0  0  0  0  0  0  0
   -3.5724   -2.8875    0.0000 C   0  0  0  0  0  0  0  0  0  0  0  0
   -3.5724   -3.7125    0.0000 O   0  0  0  0  0  0  0  0  0  0  0  0
   -2.1434   -1.2375    0.0000 C   0  0  0  0  0  0  0  0  0  0  0  0
   -2.1434   -0.4125    0.0000 O   0  0  0  0  0  0  0  0  0  0  0  0
   -1.4289   -1.6500    0.0000 N   0  0  0  0  0  0  0  0  0  0  0  0
   -0.7145   -1.2375    0.0000 C   0  0  0  0  0  0  0  0  0  0  0  0
    0.0000   -1.6500    0.0000 C   0  0  0  0  0  0  0  0  0  0  0  0
    0.7145   -1.2375    0.0000 C   0  0  0  0  0  0  0  0  0  0  0  0
    0.7145   -0.4125    0.0000 C   0  0  0  0  0  0  0  0  0  0  0  0
    0.0000   -0.0000    0.0000 O   0  0  0  0  0  0  0  0  0  0  0  0
   -0.7145   -0.4125    0.0000 C   0  0  0  0  0  0  0  0  0  0  0  0
   -1.4289    0.0000    0.0000 O   0  0  0  0  0  0  0  0  0  0  0  0
    1.4289   -0.0000    0.0000 C   0  0  0  0  0  0  0  0  0  0  0  0
    2.1434   -0.4125    0.0000 C   0  0  0  0  0  0  0  0  0  0  0  0
    2.8579   -0.0000    0.0000 O   0  0  0  0  0  0  0  0  0  0  0  0
    2.1434   -1.2375    0.0000 C   0  0  0  0  0  0  0  0  0  0  0  0
    1.4289   -1.6500    0.0000 C   0  0  0  0  0  0  0  0  0  0  0  0
  1  2  1  0  0  0  0
  2  3  1  0  0  0  0
  3  4  2  0  0  0  0
  3  5  1  0  0  0  0
  5  6  1  0  0  0  0
  6  7  2  0  0  0  0
  6  8  1  0  0  0  0
  8  9  1  0  0  0  0
  9 10  1  0  0  0  0
 10 11  1  0  0  0  0
  5 11  1  0  0  0  0
 11 12  2  0  0  0  0
  9 13  1  0  0  0  0
 13 14  2  0  0  0  0
 13 15  1  0  0  0  0
 15 16  1  0  0  0  0
 16 17  2  0  0  0  0
 17 18  1  0  0  0  0
 18 19  2  0  0  0  0
 19 20  1  0  0  0  0
 20 21  1  0  0  0  0
 16 21  1  0  0  0  0
 21 22  2  0  0  0  0
 19 23  1  0  0  0  0
 23 24  2  0  0  0  0
 24 25  1  0  0  0  0
 24 26  1  0  0  0  0
 26 27  2  0  0  0  0
 18 27  1  0  0  0  0
M  END
> <ID>
CPD_177

$$$$
CPD_182
  Mrv1822 09091914012D          

 22 24  0  0  0  0            999 V2000
   -2.5026   -3.8295    0.0000 C   0  0  0  0  0  0  0  0  0  0  0  0
   -2.3310   -3.0225    0.0000 C   0  0  0  0  0  0  0  0  0  0  0  0
   -2.9441   -2.4705    0.0000 N   0  0  0  0  0  0  0  0  0  0  0  0
   -3.7511   -2.6420    0.0000 C   0  0  0  0  0  0  0  0  0  0  0  0
   -4.1636   -1.9275    0.0000 N   0  0  0  0  0  0  0  0  0  0  0  0
   -3.6116   -1.3144    0.0000 C   0  0  0  0  0  0  0  0  0  0  0  0
   -2.8579   -1.6500    0.0000 C   0  0  0  0  0  0  0  0  0  0  0  0
   -2.1434   -1.2375    0.0000 C   0  0  0  0  0  0  0  0  0  0  0  0
   -2.1434   -0.4125    0.0000 O   0  0  0  0  0  0  0  0  0  0  0  0
   -1.4289   -1.6500    0.0000 N   0  0  0  0  0  0  0  0  0  0  0  0
   -0.7145   -1.2375    0.0000 C   0  0  0  0  0  0  0  0  0  0  0  0
    0.0000   -1.6500    0.0000 C   0  0  0  0  0  0  0  0  0  0  0  0
    0.7145   -1.2375    0.0000 C   0  0  0  0  0  0  0  0  0  0  0  0
    0.7145   -0.4125    0.0000 C   0  0  0  0  0  0  0  0  0  0  0  0
    0.0000   -0.0000    0.0000 O   0  0  0  0  0  0  0  0  0  0  0  0
   -0.7145   -0.4125    0.0000 C   0  0  0  0  0  0  0  0  0  0  0  0
   -1.4289    0.0000    0.0000 O   0  0  0  0  0  0  0  0  0  0  0  0
    1.4289   -0.0000    0.0000 C   0  0  0  0  0  0  0  0  0  0  0  0
    2.1434   -0.4125    0.0000 C   0  0  0  0  0  0  0  0  0  0  0  0
    2.8579   -0.0000    0.0000 O   0  0  0  0  0  0  0  0  0  0  0  0
    2.1434   -1.2375    0.0000 C   0  0  0  0  0  0  0  0  0  0  0  0
    1.4289   -1.6500    0.0000 C   0  0  0  0  0  0  0  0  0  0  0  0
  1  2  1  0  0  0  0
  2  3  1  0  0  0  0
  3  4  1  0  0  0  0
  4  5  2  0  0  0  0
  5  6  1  0  0  0  0
  6  7  2  0  0  0  0
  3  7  1  0  0  0  0
  7  8  1  0  0  0  0
  8  9  2  0  0  0  0
  8 10  1  0  0  0  0
 10 11  1  0  0  0  0
 11 12  2  0  0  0  0
 12 13  1  0  0  0  0
 13 14  2  0  0  0  0
 14 15  1  0  0  0  0
 15 16  1  0  0  0  0
 11 16  1  0  0  0  0
 16 17  2  0  0  0  0
 14 18  1  0  0  0  0
 18 19  2  0  0  0  0
 19 20  1  0  0  0  0
 19 21  1  0  0  0  0
 21 22  2  0  0  0  0
 13 22  1  0  0  0  0
M  END
> <ID>
CPD_182

$$$$
CPD_187
  Mrv1822 09091914012D          

 20 21  0  0  0  0            999 V2000
    2.7512    0.7634    0.0000 C   0  0  0  0  0  0  0  0  0  0  0  0
    3.4656    1.1759    0.0000 C   0  0  0  0  0  0  0  0  0  0  0  0
    3.4656    2.0009    0.0000 C   0  0  0  0  0  0  0  0  0  0  0  0
    4.1801    2.4134    0.0000 C   0  0  0  0  0  0  0  0  0  0  0  0
    4.8946    2.0009    0.0000 C   0  0  0  0  0  0  0  0  0  0  0  0
    4.8946    1.1759    0.0000 C   0  0  0  0  0  0  0  0  0  0  0  0
    5.6091    0.7634    0.0000 N   0  0  0  0  0  0  0  0  0  0  0  0
    4.1801    0.7634    0.0000 C   0  0  0  0  0  0  0  0  0  0  0  0
    4.1801   -0.0616    0.0000 C   0  0  0  0  0  0  0  0  0  0  0  0
    4.8946   -0.4741    0.0000 O   0  0  0  0  0  0  0  0  0  0  0  0
    3.4656   -0.4741    0.0000 N   0  0  0  0  0  0  0  0  0  0  0  0
    3.4656   -1.2991    0.0000 C   0  0  0  0  0  0  0  0  0  0  0  0
    4.1331   -1.7840    0.0000 N   0  0  0  0  0  0  0  0  0  0  0  0
    3.8781   -2.5687    0.0000 O   0  0  0  0  0  0  0  0  0  0  0  0
    3.0531   -2.5687    0.0000 C   0  0  0  0  0  0  0  0  0  0  0  0
    2.7982   -1.7840    0.0000 N   0  0  0  0  0  0  0  0  0  0  0  0
    2.5682   -3.2361    0.0000 C   0  0  0  0  0  0  0  0  0  0  0  0
    2.0833   -3.9035    0.0000 F   0  0  0  0  0  0  0  0  0  0  0  0
    1.9008   -2.7512    0.0000 F   0  0  0  0  0  0  0  0  0  0  0  0
    3.2357   -3.7210    0.0000 F   0  0  0  0  0  0  0  0  0  0  0  0
  1  2  1  0  0  0  0
  2  3  2  0  0  0  0
  3  4  1  0  0  0  0
  4  5  2  0  0  0  0
  5  6  1  0  0  0  0
  6  7  1  0  0  0  0
  6  8  2  0  0  0  0
  2  8  1  0  0  0  0
  8  9  1  0  0  0  0
  9 10  2  0  0  0  0
  9 11  1  0  0  0  0
 11 12  1  0  0  0  0
 12 13  2  0  0  0  0
 13 14  1  0  0  0  0
 14 15  1  0  0  0  0
 15 16  2  0  0  0  0
 12 16  1  0  0  0  0
 15 17  1  0  0  0  0
 17 18  1  0  0  0  0
 17 19  1  0  0  0  0
 17 20  1  0  0  0  0
M  END
> <ID>
CPD_187

$$$$
CPD_192
  Mrv1822 09091914012D          

 26 28  0  0  0  0            999 V2000
   -2.2501    2.0009    0.0000 C   0  0  0  0  0  0  0  0  0  0  0  0
   -2.2501    1.1759    0.0000 C   0  0  0  0  0  0  0  0  0  0  0  0
   -1.5356    0.7634    0.0000 C   0  0  0  0  0  0  0  0  0  0  0  0
   -0.8212    1.1759    0.0000 C   0  0  0  0  0  0  0  0  0  0  0  0
   -0.1067    0.7634    0.0000 C   0  0  0  0  0  0  0  0  0  0  0  0
    0.6078    1.1759    0.0000 N   0  0  0  0  0  0  0  0  0  0  0  0
    1.3222    0.7634    0.0000 C   0  0  0  0  0  0  0  0  0  0  0  0
    1.3222   -0.0616    0.0000 O   0  0  0  0  0  0  0  0  0  0  0  0
    2.0367    1.1759    0.0000 C   0  0  0  0  0  0  0  0  0  0  0  0
    2.0367    2.0009    0.0000 C   0  0  0  0  0  0  0  0  0  0  0  0
    2.7512    2.4134    0.0000 C   0  0  0  0  0  0  0  0  0  0  0  0
    3.4656    2.0009    0.0000 C   0  0  0  0  0  0  0  0  0  0  0  0
    3.4656    1.1759    0.0000 C   0  0  0  0  0  0  0  0  0  0  0  0
    2.7512    0.7634    0.0000 C   0  0  0  0  0  0  0  0  0  0  0  0
    2.7512   -0.0616    0.0000 N   0  0  0  0  0  0  0  0  0  0  0  0
    3.4186   -0.5465    0.0000 C   0  0  0  0  0  0  0  0  0  0  0  0
    3.1637   -1.3312    0.0000 C   0  0  0  0  0  0  0  0  0  0  0  0
    2.3387   -1.3312    0.0000 N   0  0  0  0  0  0  0  0  0  0  0  0
    2.0837   -0.5465    0.0000 C   0  0  0  0  0  0  0  0  0  0  0  0
   -0.1067   -0.0616    0.0000 C   0  0  0  0  0  0  0  0  0  0  0  0
   -0.8212   -0.4741    0.0000 C   0  0  0  0  0  0  0  0  0  0  0  0
   -1.5356   -0.0616    0.0000 C   0  0  0  0  0  0  0  0  0  0  0  0
   -2.9646    0.7634    0.0000 S   0  0  0  0  0  0  0  0  0  0  0  0
   -3.6791    0.3509    0.0000 C   0  0  0  0  0  0  0  0  0  0  0  0
   -3.3771    1.4779    0.0000 O   0  0  0  0  0  0  0  0  0  0  0  0
   -2.5521    0.0489    0.0000 O   0  0  0  0  0  0  0  0  0  0  0  0
  1  2  1  0  0  0  0
  2  3  1  0  0  0  0
  3  4  2  0  0  0  0
  4  5  1  0  0  0  0
  5  6  1  0  0  0  0
  6  7  1  0  0  0  0
  7  8  2  0  0  0  0
  7  9  1  0  0  0  0
  9 10  2  0  0  0  0
 10 11  1  0  0  0  0
 11 12  2  0  0  0  0
 12 13  1  0  0  0  0
 13 14  2  0  0  0  0
  9 14  1  0  0  0  0
 14 15  1  0  0  0  0
 15 16  1  0  0  0  0
 16 17  2  0  0  0  0
 17 18  1  0  0  0  0
 18 19  2  0  0  0  0
 15 19  1  0  0  0  0
  5 20  2  0  0  0  0
 20 21  1  0  0  0  0
 21 22  2  0  0  0  0
  3 22  1  0  0  0  0
  2 23  1  0  0  0  0
 23 24  1  0  0  0  0
 23 25  2  0  0  0  0
 23 26  2  0  0  0  0
M  END
> <ID>
CPD_192

$$$$
CPD_197
  Mrv1822 09091914012D          

 32 34  0  0  0  0            999 V2000
    2.7512    7.2402    0.0000 C   0  0  0  0  0  0  0  0  0  0  0  0
    2.0367    6.8277    0.0000 C   0  0  0  0  0  0  0  0  0  0  0  0
    2.0367    6.0027    0.0000 C   0  0  0  0  0  0  0  0  0  0  0  0
    2.7512    5.5902    0.0000 C   0  0  0  0  0  0  0  0  0  0  0  0
    2.7512    4.7652    0.0000 C   0  0  0  0  0  0  0  0  0  0  0  0
    3.4656    4.3527    0.0000 N   0  0  0  0  0  0  0  0  0  0  0  0
    3.4656    3.5277    0.0000 C   0  0  0  0  0  0  0  0  0  0  0  0
    2.7512    3.1152    0.0000 O   0  0  0  0  0  0  0  0  0  0  0  0
    4.1801    3.1152    0.0000 C   0  0  0  0  0  0  0  0  0  0  0  0
    4.8946    3.5277    0.0000 C   0  0  0  0  0  0  0  0  0  0  0  0
    5.6091    3.1152    0.0000 C   0  0  0  0  0  0  0  0  0  0  0  0
    5.6091    2.2902    0.0000 C   0  0  0  0  0  0  0  0  0  0  0  0
    4.8946    1.8777    0.0000 C   0  0  0  0  0  0  0  0  0  0  0  0
    4.1801    2.2902    0.0000 C   0  0  0  0  0  0  0  0  0  0  0  0
    3.4656    1.8777    0.0000 C   0  0  0  0  0  0  0  0  0  0  0  0
    2.7512    2.2902    0.0000 O   0  0  0  0  0  0  0  0  0  0  0  0
    3.4656    1.0527    0.0000 C   0  0  0  0  0  0  0  0  0  0  0  0
    4.1331    0.5678    0.0000 C   0  0  0  0  0  0  0  0  0  0  0  0
    3.8781   -0.2169    0.0000 N   0  0  0  0  0  0  0  0  0  0  0  0
    4.3631   -0.8843    0.0000 C   0  0  0  0  0  0  0  0  0  0  0  0
    3.0531   -0.2169    0.0000 C   0  0  0  0  0  0  0  0  0  0  0  0
    2.7982    0.5678    0.0000 C   0  0  0  0  0  0  0  0  0  0  0  0
    2.5682   -0.8843    0.0000 C   0  0  0  0  0  0  0  0  0  0  0  0
    2.9038   -1.6380    0.0000 O   0  0  0  0  0  0  0  0  0  0  0  0
    1.7477   -0.7981    0.0000 O   0  0  0  0  0  0  0  0  0  0  0  0
    2.0367    4.3527    0.0000 C   0  0  0  0  0  0  0  0  0  0  0  0
    1.3222    4.7652    0.0000 C   0  0  0  0  0  0  0  0  0  0  0  0
    1.3222    5.5902    0.0000 C   0  0  0  0  0  0  0  0  0  0  0  0
    1.3222    7.2402    0.0000 S   0  0  0  0  0  0  0  0  0  0  0  0
    0.6078    7.6527    0.0000 C   0  0  0  0  0  0  0  0  0  0  0  0
    1.7347    7.9547    0.0000 O   0  0  0  0  0  0  0  0  0  0  0  0
    0.9097    6.5257    0.0000 O   0  0  0  0  0  0  0  0  0  0  0  0
  1  2  1  0  0  0  0
  2  3  1  0  0  0  0
  3  4  2  0  0  0  0
  4  5  1  0  0  0  0
  5  6  1  0  0  0  0
  6  7  1  0  0  0  0
  7  8  2  0  0  0  0
  7  9  1  0  0  0  0
  9 10  2  0  0  0  0
 10 11  1  0  0  0  0
 11 12  2  0  0  0  0
 12 13  1  0  0  0  0
 13 14  2  0  0  0  0
  9 14  1  0  0  0  0
 14 15  1  0  0  0  0
 15 16  2  0  0  0  0
 15 17  1  0  0  0  0
 17 18  2  0  0  0  0
 18 19  1  0  0  0  0
 19 20  1  0  0  0  0
 19 21  1  0  0  0  0
 21 22  2  0  0  0  0
 17 22  1  0  0  0  0
 21 23  1  0  0  0  0
 23 24  1  0  0  0  0
 23 25  2  0  0  0  0
  5 26  2  0  0  0  0
 26 27  1  0  0  0  0
 27 28  2  0  0  0  0
  3 28  1  0  0  0  0
  2 29  1  0  0  0  0
 29 30  1  0  0  0  0
 29 31  2  0  0  0  0
 29 32  2  0  0  0  0
M  END
> <ID>
CPD_197

$$$$
CPD_202
  Mrv1822 09091914012D          

 25 26  0  0  0  0            999 V2000
    3.5724   -1.2375    0.0000 C   0  0  0  0  0  0  0  0  0  0  0  0
    2.8579   -1.6500    0.0000 C   0  0  0  0  0  0  0  0  0  0  0  0
    2.8579   -2.4750    0.0000 C   0  0  0  0  0  0  0  0  0  0  0  0
    3.5724   -2.8875    0.0000 C   0  0  0  0  0  0  0  0  0  0  0  0
    3.5724   -3.7125    0.0000 C   0  0  0  0  0  0  0  0  0  0  0  0
    4.2868   -4.1250    0.0000 N   0  0  0  0  0  0  0  0  0  0  0  0
    4.2868   -4.9500    0.0000 C   0  0  0  0  0  0  0  0  0  0  0  0
    3.5724   -5.3625    0.0000 O   0  0  0  0  0  0  0  0  0  0  0  0
    5.0013   -5.3625    0.0000 C   0  0  0  0  0  0  0  0  0  0  0  0
    5.7158   -4.9500    0.0000 N   0  0  0  0  0  0  0  0  0  0  0  0
    5.0013   -6.1875    0.0000 C   0  0  0  0  0  0  0  0  0  0  0  0
    5.7158   -6.6000    0.0000 C   0  0  0  0  0  0  0  0  0  0  0  0
    6.4302   -6.1875    0.0000 C   0  0  0  0  0  0  0  0  0  0  0  0
    5.7158   -7.4250    0.0000 C   0  0  0  0  0  0  0  0  0  0  0  0
    5.0013   -7.8375    0.0000 C   0  0  0  0  0  0  0  0  0  0  0  0
    4.2868   -7.4250    0.0000 C   0  0  0  0  0  0  0  0  0  0  0  0
    3.5724   -7.8375    0.0000 C   0  0  0  0  0  0  0  0  0  0  0  0
    4.2868   -6.6000    0.0000 C   0  0  0  0  0  0  0  0  0  0  0  0
    2.8579   -4.1250    0.0000 C   0  0  0  0  0  0  0  0  0  0  0  0
    2.1434   -3.7125    0.0000 C   0  0  0  0  0  0  0  0  0  0  0  0
    2.1434   -2.8875    0.0000 C   0  0  0  0  0  0  0  0  0  0  0  0
    2.1434   -1.2375    0.0000 S   0  0  0  0  0  0  0  0  0  0  0  0
    1.4289   -0.8250    0.0000 C   0  0  0  0  0  0  0  0  0  0  0  0
    2.5559   -0.5230    0.0000 O   0  0  0  0  0  0  0  0  0  0  0  0
    1.7309   -1.9520    0.0000 O   0  0  0  0  0  0  0  0  0  0  0  0
  1  2  1  0  0  0  0
  2  3  1  0  0  0  0
  3  4  2  0  0  0  0
  4  5  1  0  0  0  0
  5  6  1  0  0  0  0
  6  7  1  0  0  0  0
  7  8  2  0  0  0  0
  7  9  1  0  0  0  0
  9 10  1  0  0  0  0
  9 11  1  0  0  0  0
 11 12  2  0  0  0  0
 12 13  1  0  0  0  0
 12 14  1  0  0  0  0
 14 15  2  0  0  0  0
 15 16  1  0  0  0  0
 16 17  1  0  0  0  0
 16 18  2  0  0  0  0
 11 18  1  0  0  0  0
  5 19  2  0  0  0  0
 19 20  1  0  0  0  0
 20 21  2  0  0  0  0
  3 21  1  0  0  0  0
  2 22  1  0  0  0  0
 22 23  1  0  0  0  0
 22 24  2  0  0  0  0
 22 25  2  0  0  0  0
M  END
> <ID>
CPD_202

$$$$
CPD_207
  Mrv1822 09091914012D          

 26 27  0  0  0  0            999 V2000
    3.5724   -2.0625    0.0000 C   0  0  0  0  0  0  0  0  0  0  0  0
    2.8579   -2.4750    0.0000 C   0  0  0  0  0  0  0  0  0  0  0  0
    2.8579   -3.3000    0.0000 C   0  0  0  0  0  0  0  0  0  0  0  0
    3.5724   -3.7125    0.0000 C   0  0  0  0  0  0  0  0  0  0  0  0
    3.5724   -4.5375    0.0000 C   0  0  0  0  0  0  0  0  0  0  0  0
    4.2868   -4.9500    0.0000 N   0  0  0  0  0  0  0  0  0  0  0  0
    4.2868   -5.7750    0.0000 C   0  0  0  0  0  0  0  0  0  0  0  0
    3.5724   -6.1875    0.0000 O   0  0  0  0  0  0  0  0  0  0  0  0
    5.0013   -6.1875    0.0000 C   0  0  0  0  0  0  0  0  0  0  0  0
    5.0013   -7.0125    0.0000 S   0  0  0  0  0  0  0  0  0  0  0  0
    5.8263   -7.0125    0.0000 O   0  0  0  0  0  0  0  0  0  0  0  0
    4.1763   -7.0125    0.0000 O   0  0  0  0  0  0  0  0  0  0  0  0
    5.0013   -7.8375    0.0000 C   0  0  0  0  0  0  0  0  0  0  0  0
    5.7158   -8.2500    0.0000 C   0  0  0  0  0  0  0  0  0  0  0  0
    5.7158   -9.0750    0.0000 C   0  0  0  0  0  0  0  0  0  0  0  0
    5.0013   -9.4875    0.0000 C   0  0  0  0  0  0  0  0  0  0  0  0
    5.0013  -10.3125    0.0000 C   0  0  0  0  0  0  0  0  0  0  0  0
    4.2868   -9.0750    0.0000 C   0  0  0  0  0  0  0  0  0  0  0  0
    4.2868   -8.2500    0.0000 C   0  0  0  0  0  0  0  0  0  0  0  0
    2.8579   -4.9500    0.0000 C   0  0  0  0  0  0  0  0  0  0  0  0
    2.1434   -4.5375    0.0000 C   0  0  0  0  0  0  0  0  0  0  0  0
    2.1434   -3.7125    0.0000 C   0  0  0  0  0  0  0  0  0  0  0  0
    2.1434   -2.0625    0.0000 S   0  0  0  0  0  0  0  0  0  0  0  0
    1.4289   -1.6500    0.0000 C   0  0  0  0  0  0  0  0  0  0  0  0
    2.5559   -1.3480    0.0000 O   0  0  0  0  0  0  0  0  0  0  0  0
    1.7309   -2.7770    0.0000 O   0  0  0  0  0  0  0  0  0  0  0  0
  1  2  1  0  0  0  0
  2  3  1  0  0  0  0
  3  4  2  0  0  0  0
  4  5  1  0  0  0  0
  5  6  1  0  0  0  0
  6  7  1  0  0  0  0
  7  8  2  0  0  0  0
  7  9  1  0  0  0  0
  9 10  1  0  0  0  0
 10 11  2  0  0  0  0
 10 12  2  0  0  0  0
 10 13  1  0  0  0  0
 13 14  2  0  0  0  0
 14 15  1  0  0  0  0
 15 16  2  0  0  0  0
 16 17  1  0  0  0  0
 16 18  1  0  0  0  0
 18 19  2  0  0  0  0
 13 19  1  0  0  0  0
  5 20  2  0  0  0  0
 20 21  1  0  0  0  0
 21 22  2  0  0  0  0
  3 22  1  0  0  0  0
  2 23  1  0  0  0  0
 23 24  1  0  0  0  0
 23 25  2  0  0  0  0
 23 26  2  0  0  0  0
M  END
> <ID>
CPD_207

$$$$
CPD_212
  Mrv1822 09091914012D          

 24 26  0  0  0  0            999 V2000
    2.5645    3.3000    0.0000 N   0  0  0  0  0  0  0  0  0  0  0  0
    3.2789    3.7125    0.0000 C   0  0  0  0  0  0  0  0  0  0  0  0
    3.2789    4.5375    0.0000 C   0  0  0  0  0  0  0  0  0  0  0  0
    3.9934    4.9500    0.0000 C   0  0  0  0  0  0  0  0  0  0  0  0
    3.9934    5.7750    0.0000 Br  0  0  0  0  0  0  0  0  0  0  0  0
    4.7079    4.5375    0.0000 C   0  0  0  0  0  0  0  0  0  0  0  0
    5.4223    4.9500    0.0000 Br  0  0  0  0  0  0  0  0  0  0  0  0
    4.7079    3.7125    0.0000 C   0  0  0  0  0  0  0  0  0  0  0  0
    3.9934    3.3000    0.0000 C   0  0  0  0  0  0  0  0  0  0  0  0
    3.9934    2.4750    0.0000 N   0  0  0  0  0  0  0  0  0  0  0  0
    3.2789    2.0625    0.0000 C   0  0  0  0  0  0  0  0  0  0  0  0
    2.5645    2.4750    0.0000 O   0  0  0  0  0  0  0  0  0  0  0  0
    3.2789    1.2375    0.0000 C   0  0  0  0  0  0  0  0  0  0  0  0
    3.9934    0.8250    0.0000 C   0  0  0  0  0  0  0  0  0  0  0  0
    3.9934    0.0000    0.0000 C   0  0  0  0  0  0  0  0  0  0  0  0
    3.2789   -0.4125    0.0000 C   0  0  0  0  0  0  0  0  0  0  0  0
    2.5645    0.0000    0.0000 C   0  0  0  0  0  0  0  0  0  0  0  0
    2.5645    0.8250    0.0000 C   0  0  0  0  0  0  0  0  0  0  0  0
    1.7798    1.0799    0.0000 N   0  0  0  0  0  0  0  0  0  0  0  0
    1.2949    0.4125    0.0000 N   0  0  0  0  0  0  0  0  0  0  0  0
    1.7798   -0.2549    0.0000 C   0  0  0  0  0  0  0  0  0  0  0  0
    1.5249   -1.0396    0.0000 C   0  0  0  0  0  0  0  0  0  0  0  0
    2.0769   -1.6527    0.0000 O   0  0  0  0  0  0  0  0  0  0  0  0
    0.7179   -1.2111    0.0000 O   0  0  0  0  0  0  0  0  0  0  0  0
  1  2  1  0  0  0  0
  2  3  2  0  0  0  0
  3  4  1  0  0  0  0
  4  5  1  0  0  0  0
  4  6  2  0  0  0  0
  6  7  1  0  0  0  0
  6  8  1  0  0  0  0
  8  9  2  0  0  0  0
  2  9  1  0  0  0  0
  9 10  1  0  0  0  0
 10 11  1  0  0  0  0
 11 12  2  0  0  0  0
 11 13  1  0  0  0  0
 13 14  2  0  0  0  0
 14 15  1  0  0  0  0
 15 16  2  0  0  0  0
 16 17  1  0  0  0  0
 17 18  2  0  0  0  0
 13 18  1  0  0  0  0
 18 19  1  0  0  0  0
 19 20  1  0  0  0  0
 20 21  2  0  0  0  0
 17 21  1  0  0  0  0
 21 22  1  0  0  0  0
 22 23  1  0  0  0  0
 22 24  2  0  0  0  0
M  END
> <ID>
CPD_212

$$$$
CPD_217
  Mrv1822 09091914012D          

 33 35  0  0  0  0            999 V2000
   -0.7145   -6.1875    0.0000 C   0  0  0  0  0  0  0  0  0  0  0  0
   -0.7145   -5.3625    0.0000 O   0  0  0  0  0  0  0  0  0  0  0  0
    0.0000   -4.9500    0.0000 C   0  0  0  0  0  0  0  0  0  0  0  0
    0.0000   -4.1250    0.0000 C   0  0  0  0  0  0  0  0  0  0  0  0
    0.7145   -3.7125    0.0000 C   0  0  0  0  0  0  0  0  0  0  0  0
    0.7145   -2.8875    0.0000 O   0  0  0  0  0  0  0  0  0  0  0  0
    1.4289   -2.4750    0.0000 C   0  0  0  0  0  0  0  0  0  0  0  0
    1.4289   -4.1250    0.0000 C   0  0  0  0  0  0  0  0  0  0  0  0
    1.4289   -4.9500    0.0000 C   0  0  0  0  0  0  0  0  0  0  0  0
    0.7145   -5.3625    0.0000 C   0  0  0  0  0  0  0  0  0  0  0  0
    0.7145   -6.1875    0.0000 O   0  0  0  0  0  0  0  0  0  0  0  0
    0.0000   -6.6000    0.0000 C   0  0  0  0  0  0  0  0  0  0  0  0
    2.1434   -3.7125    0.0000 C   0  0  0  0  0  0  0  0  0  0  0  0
    2.1434   -2.8875    0.0000 O   0  0  0  0  0  0  0  0  0  0  0  0
    2.8579   -4.1250    0.0000 N   0  0  0  0  0  0  0  0  0  0  0  0
    3.5724   -3.7125    0.0000 C   0  0  0  0  0  0  0  0  0  0  0  0
    4.2868   -4.1250    0.0000 C   0  0  0  0  0  0  0  0  0  0  0  0
    4.2868   -4.9500    0.0000 O   0  0  0  0  0  0  0  0  0  0  0  0
    5.0013   -3.7125    0.0000 N   0  0  0  0  0  0  0  0  0  0  0  0
    5.7158   -4.1250    0.0000 C   0  0  0  0  0  0  0  0  0  0  0  0
    6.4302   -3.7125    0.0000 C   0  0  0  0  0  0  0  0  0  0  0  0
    7.1447   -4.1250    0.0000 C   0  0  0  0  0  0  0  0  0  0  0  0
    7.1447   -4.9500    0.0000 C   0  0  0  0  0  0  0  0  0  0  0  0
    7.8592   -5.3625    0.0000 N   0  0  0  0  0  0  0  0  0  0  0  0
    8.5737   -4.9500    0.0000 C   0  0  0  0  0  0  0  0  0  0  0  0
    8.5737   -4.1250    0.0000 O   0  0  0  0  0  0  0  0  0  0  0  0
    9.2881   -5.3625    0.0000 C   0  0  0  0  0  0  0  0  0  0  0  0
   10.0418   -5.0269    0.0000 C   0  0  0  0  0  0  0  0  0  0  0  0
   10.5938   -5.6400    0.0000 C   0  0  0  0  0  0  0  0  0  0  0  0
   10.1813   -6.3545    0.0000 C   0  0  0  0  0  0  0  0  0  0  0  0
    9.3744   -6.1830    0.0000 O   0  0  0  0  0  0  0  0  0  0  0  0
    6.4302   -5.3625    0.0000 C   0  0  0  0  0  0  0  0  0  0  0  0
    5.7158   -4.9500    0.0000 C   0  0  0  0  0  0  0  0  0  0  0  0
  1  2  1  0  0  0  0
  2  3  1  0  0  0  0
  3  4  2  0  0  0  0
  4  5  1  0  0  0  0
  5  6  1  0  0  0  0
  6  7  1  0  0  0  0
  5  8  2  0  0  0  0
  8  9  1  0  0  0  0
  9 10  2  0  0  0  0
  3 10  1  0  0  0  0
 10 11  1  0  0  0  0
 11 12  1  0  0  0  0
  8 13  1  0  0  0  0
 13 14  2  0  0  0  0
 13 15  1  0  0  0  0
 15 16  1  0  0  0  0
 16 17  1  0  0  0  0
 17 18  2  0  0  0  0
 17 19  1  0  0  0  0
 19 20  1  0  0  0  0
 20 21  2  0  0  0  0
 21 22  1  0  0  0  0
 22 23  2  0  0  0  0
 23 24  1  0  0  0  0
 24 25  1  0  0  0  0
 25 26  2  0  0  0  0
 25 27  1  0  0  0  0
 27 28  2  0  0  0  0
 28 29  1  0  0  0  0
 29 30  2  0  0  0  0
 30 31  1  0  0  0  0
 27 31  1  0  0  0  0
 23 32  1  0  0  0  0
 32 33  2  0  0  0  0
 20 33  1  0  0  0  0
M  END
> <ID>
CPD_217

$$$$
CPD_222
  Mrv1822 09091914012D          

 29 31  0  0  1  0            999 V2000
   -2.7525   -2.7346    0.0000 C   0  0  0  0  0  0  0  0  0  0  0  0
   -1.9275   -2.7346    0.0000 C   0  0  0  0  0  0  0  0  0  0  0  0
   -1.5150   -2.0202    0.0000 O   0  0  0  0  0  0  0  0  0  0  0  0
   -0.6900   -2.0202    0.0000 C   0  0  0  0  0  0  0  0  0  0  0  0
   -0.2775   -2.7346    0.0000 O   0  0  0  0  0  0  0  0  0  0  0  0
   -0.2775   -1.3057    0.0000 C   0  0  0  0  0  0  0  0  0  0  0  0
    0.5429   -1.2195    0.0000 C   0  0  0  0  0  0  0  0  0  0  0  0
    1.0950   -1.8326    0.0000 C   0  0  0  0  0  0  0  0  0  0  0  0
    0.7145   -0.4125    0.0000 C   0  0  0  0  0  0  0  0  0  0  0  0
    0.0000    0.0000    0.0000 C   0  0  0  0  0  0  0  0  0  0  0  0
   -0.0000    0.8250    0.0000 N   0  0  0  0  0  0  0  0  0  0  0  0
    0.7145    1.2375    0.0000 C   0  0  0  0  0  0  0  0  0  0  0  0
    1.4289    0.8250    0.0000 C   0  0  0  0  0  0  0  0  0  0  0  0
    2.1434    1.2375    0.0000 C   0  0  0  0  0  0  0  0  0  0  0  0
    2.1434    2.0625    0.0000 O   0  0  0  0  0  0  0  0  0  0  0  0
    2.8579    0.8250    0.0000 N   0  0  0  0  0  0  0  0  0  0  0  0
    3.5724    1.2375    0.0000 C   0  0  0  0  0  0  0  0  0  0  0  0
    4.2868    0.8250    0.0000 C   0  0  2  0  0  0  0  0  0  0  0  0
    4.2868    0.0000    0.0000 O   0  0  0  0  0  0  0  0  0  0  0  0
    5.0013    1.2375    0.0000 C   0  0  0  0  0  0  0  0  0  0  0  0
    5.7158    0.8250    0.0000 N   0  0  0  0  0  0  0  0  0  0  0  0
    6.4302    1.2375    0.0000 C   0  0  0  0  0  0  0  0  0  0  0  0
    7.1447    0.8250    0.0000 C   0  0  0  0  0  0  0  0  0  0  0  0
    7.1447    0.0000    0.0000 O   0  0  0  0  0  0  0  0  0  0  0  0
    6.4302   -0.4125    0.0000 C   0  0  0  0  0  0  0  0  0  0  0  0
    5.7158    0.0000    0.0000 C   0  0  0  0  0  0  0  0  0  0  0  0
    1.4289    0.0000    0.0000 C   0  0  0  0  0  0  0  0  0  0  0  0
    2.1434   -0.4125    0.0000 O   0  0  0  0  0  0  0  0  0  0  0  0
   -0.6131   -0.5520    0.0000 S   0  0  0  0  0  0  0  0  0  0  0  0
  1  2  1  0  0  0  0
  2  3  1  0  0  0  0
  3  4  1  0  0  0  0
  4  5  2  0  0  0  0
  4  6  1  0  0  0  0
  6  7  2  0  0  0  0
  7  8  1  0  0  0  0
  7  9  1  0  0  0  0
  9 10  2  0  0  0  0
 10 11  1  0  0  0  0
 11 12  1  0  0  0  0
 12 13  2  0  0  0  0
 13 14  1  0  0  0  0
 14 15  2  0  0  0  0
 14 16  1  0  0  0  0
 16 17  1  0  0  0  0
 18 17  1  0  0  0  0
 18 19  1  1  0  0  0
 18 20  1  0  0  0  0
 20 21  1  0  0  0  0
 21 22  1  0  0  0  0
 22 23  1  0  0  0  0
 23 24  1  0  0  0  0
 24 25  1  0  0  0  0
 25 26  1  0  0  0  0
 21 26  1  0  0  0  0
 13 27  1  0  0  0  0
  9 27  1  0  0  0  0
 27 28  2  0  0  0  0
 10 29  1  0  0  0  0
  6 29  1  0  0  0  0
M  END
> <ID>
CPD_222

$$$$
CPD_227
  Mrv1822 09091914012D          

 31 33  0  0  0  0            999 V2000
    1.4289   -4.9500    0.0000 Cl  0  0  0  0  0  0  0  0  0  0  0  0
    0.7145   -5.3625    0.0000 C   0  0  0  0  0  0  0  0  0  0  0  0
    0.7145   -6.1875    0.0000 C   0  0  0  0  0  0  0  0  0  0  0  0
    0.0000   -6.6000    0.0000 C   0  0  0  0  0  0  0  0  0  0  0  0
   -0.7145   -6.1875    0.0000 C   0  0  0  0  0  0  0  0  0  0  0  0
   -0.7145   -5.3625    0.0000 C   0  0  0  0  0  0  0  0  0  0  0  0
   -1.4289   -4.9500    0.0000 Cl  0  0  0  0  0  0  0  0  0  0  0  0
    0.0000   -4.9500    0.0000 C   0  0  0  0  0  0  0  0  0  0  0  0
    0.0000   -4.1250    0.0000 N   0  0  0  0  0  0  0  0  0  0  0  0
    0.7145   -3.7125    0.0000 C   0  0  0  0  0  0  0  0  0  0  0  0
    0.7145   -2.8875    0.0000 O   0  0  0  0  0  0  0  0  0  0  0  0
    1.4289   -4.1250    0.0000 C   0  0  0  0  0  0  0  0  0  0  0  0
    2.1434   -3.7125    0.0000 C   0  0  0  0  0  0  0  0  0  0  0  0
    2.8579   -4.1250    0.0000 C   0  0  0  0  0  0  0  0  0  0  0  0
    2.8579   -4.9500    0.0000 O   0  0  0  0  0  0  0  0  0  0  0  0
    3.5724   -3.7125    0.0000 N   0  0  0  0  0  0  0  0  0  0  0  0
    4.2868   -4.1250    0.0000 C   0  0  0  0  0  0  0  0  0  0  0  0
    5.0013   -3.7125    0.0000 C   0  0  0  0  0  0  0  0  0  0  0  0
    5.7158   -4.1250    0.0000 C   0  0  0  0  0  0  0  0  0  0  0  0
    5.7158   -4.9500    0.0000 C   0  0  0  0  0  0  0  0  0  0  0  0
    5.0013   -5.3625    0.0000 C   0  0  0  0  0  0  0  0  0  0  0  0
    4.2868   -4.9500    0.0000 C   0  0  0  0  0  0  0  0  0  0  0  0
   -0.7145   -3.7125    0.0000 S   0  0  0  0  0  0  0  0  0  0  0  0
   -0.3020   -2.9980    0.0000 O   0  0  0  0  0  0  0  0  0  0  0  0
   -1.1270   -4.4270    0.0000 O   0  0  0  0  0  0  0  0  0  0  0  0
   -1.4289   -3.3000    0.0000 C   0  0  0  0  0  0  0  0  0  0  0  0
   -2.1434   -3.7125    0.0000 C   0  0  0  0  0  0  0  0  0  0  0  0
   -2.8579   -3.3000    0.0000 C   0  0  0  0  0  0  0  0  0  0  0  0
   -2.8579   -2.4750    0.0000 C   0  0  0  0  0  0  0  0  0  0  0  0
   -2.1434   -2.0625    0.0000 C   0  0  0  0  0  0  0  0  0  0  0  0
   -1.4289   -2.4750    0.0000 C   0  0  0  0  0  0  0  0  0  0  0  0
  1  2  1  0  0  0  0
  2  3  2  0  0  0  0
  3  4  1  0  0  0  0
  4  5  2  0  0  0  0
  5  6  1  0  0  0  0
  6  7  1  0  0  0  0
  6  8  2  0  0  0  0
  2  8  1  0  0  0  0
  8  9  1  0  0  0  0
  9 10  1  0  0  0  0
 10 11  2  0  0  0  0
 10 12  1  0  0  0  0
 12 13  1  0  0  0  0
 13 14  1  0  0  0  0
 14 15  2  0  0  0  0
 14 16  1  0  0  0  0
 16 17  1  0  0  0  0
 17 18  2  0  0  0  0
 18 19  1  0  0  0  0
 19 20  2  0  0  0  0
 20 21  1  0  0  0  0
 21 22  2  0  0  0  0
 17 22  1  0  0  0  0
  9 23  1  0  0  0  0
 23 24  2  0  0  0  0
 23 25  2  0  0  0  0
 23 26  1  0  0  0  0
 26 27  2  0  0  0  0
 27 28  1  0  0  0  0
 28 29  2  0  0  0  0
 29 30  1  0  0  0  0
 30 31  2  0  0  0  0
 26 31  1  0  0  0  0
M  END
> <ID>
CPD_227

$$$$
CPD_232
  Mrv1822 09091914012D          

 28 31  0  0  0  0            999 V2000
    8.1296    6.6827    0.0000 C   0  0  0  0  0  0  0  0  0  0  0  0
    7.3450    6.9377    0.0000 C   0  0  0  0  0  0  0  0  0  0  0  0
    6.7319    6.3856    0.0000 O   0  0  0  0  0  0  0  0  0  0  0  0
    6.9034    5.5787    0.0000 C   0  0  0  0  0  0  0  0  0  0  0  0
    7.6880    5.3237    0.0000 C   0  0  0  0  0  0  0  0  0  0  0  0
    7.8596    4.5168    0.0000 C   0  0  0  0  0  0  0  0  0  0  0  0
    7.2465    3.9647    0.0000 C   0  0  0  0  0  0  0  0  0  0  0  0
    6.4619    4.2197    0.0000 C   0  0  0  0  0  0  0  0  0  0  0  0
    6.2903    5.0266    0.0000 C   0  0  0  0  0  0  0  0  0  0  0  0
    5.5057    5.2816    0.0000 C   0  0  0  0  0  0  0  0  0  0  0  0
    4.8383    4.7967    0.0000 C   0  0  0  0  0  0  0  0  0  0  0  0
    4.1708    5.2816    0.0000 C   0  0  0  0  0  0  0  0  0  0  0  0
    4.4258    6.0662    0.0000 N   0  0  0  0  0  0  0  0  0  0  0  0
    5.2508    6.0662    0.0000 N   0  0  0  0  0  0  0  0  0  0  0  0
    4.8383    3.9717    0.0000 C   0  0  0  0  0  0  0  0  0  0  0  0
    5.5527    3.5592    0.0000 O   0  0  0  0  0  0  0  0  0  0  0  0
    4.1238    3.5592    0.0000 N   0  0  0  0  0  0  0  0  0  0  0  0
    4.1238    2.7342    0.0000 C   0  0  0  0  0  0  0  0  0  0  0  0
    4.5363    2.0197    0.0000 C   0  0  0  0  0  0  0  0  0  0  0  0
    3.7113    2.0197    0.0000 C   0  0  0  0  0  0  0  0  0  0  0  0
    3.4093    3.9717    0.0000 S   0  0  0  0  0  0  0  0  0  0  0  0
    3.8218    4.6861    0.0000 O   0  0  0  0  0  0  0  0  0  0  0  0
    2.9968    3.2572    0.0000 O   0  0  0  0  0  0  0  0  0  0  0  0
    2.6949    4.3842    0.0000 C   0  0  0  0  0  0  0  0  0  0  0  0
    1.9412    4.0486    0.0000 C   0  0  0  0  0  0  0  0  0  0  0  0
    1.3891    4.6617    0.0000 C   0  0  0  0  0  0  0  0  0  0  0  0
    1.8016    5.3762    0.0000 C   0  0  0  0  0  0  0  0  0  0  0  0
    2.6086    5.2046    0.0000 S   0  0  0  0  0  0  0  0  0  0  0  0
  1  2  1  0  0  0  0
  2  3  1  0  0  0  0
  3  4  1  0  0  0  0
  4  5  2  0  0  0  0
  5  6  1  0  0  0  0
  6  7  2  0  0  0  0
  7  8  1  0  0  0  0
  8  9  2  0  0  0  0
  4  9  1  0  0  0  0
  9 10  1  0  0  0  0
 10 11  2  0  0  0  0
 11 12  1  0  0  0  0
 12 13  2  0  0  0  0
 13 14  1  0  0  0  0
 10 14  1  0  0  0  0
 11 15  1  0  0  0  0
 15 16  2  0  0  0  0
 15 17  1  0  0  0  0
 17 18  1  0  0  0  0
 18 19  1  0  0  0  0
 19 20  1  0  0  0  0
 18 20  1  0  0  0  0
 17 21  1  0  0  0  0
 21 22  2  0  0  0  0
 21 23  2  0  0  0  0
 21 24  1  0  0  0  0
 24 25  2  0  0  0  0
 25 26  1  0  0  0  0
 26 27  2  0  0  0  0
 27 28  1  0  0  0  0
 24 28  1  0  0  0  0
M  END
> <ID>
CPD_232

$$$$
CPD_237
  Mrv1822 09091914012D          

 26 29  0  0  0  0            999 V2000
    1.4289   -2.4750    0.0000 C   0  0  0  0  0  0  0  0  0  0  0  0
    1.4289   -1.6500    0.0000 C   0  0  0  0  0  0  0  0  0  0  0  0
    0.7145   -1.2375    0.0000 O   0  0  0  0  0  0  0  0  0  0  0  0
    0.7145   -0.4125    0.0000 C   0  0  0  0  0  0  0  0  0  0  0  0
    0.0000    0.0000    0.0000 C   0  0  0  0  0  0  0  0  0  0  0  0
   -0.7846   -0.2549    0.0000 C   0  0  0  0  0  0  0  0  0  0  0  0
   -1.2695    0.4125    0.0000 C   0  0  0  0  0  0  0  0  0  0  0  0
   -0.7846    1.0799    0.0000 N   0  0  0  0  0  0  0  0  0  0  0  0
    0.0000    0.8250    0.0000 C   0  0  0  0  0  0  0  0  0  0  0  0
    0.7145    1.2375    0.0000 C   0  0  0  0  0  0  0  0  0  0  0  0
    1.4289    0.8250    0.0000 C   0  0  0  0  0  0  0  0  0  0  0  0
    1.4289    0.0000    0.0000 C   0  0  0  0  0  0  0  0  0  0  0  0
   -2.0945    0.4125    0.0000 C   0  0  0  0  0  0  0  0  0  0  0  0
   -2.5070    1.1270    0.0000 O   0  0  0  0  0  0  0  0  0  0  0  0
   -2.5070   -0.3020    0.0000 N   0  0  0  0  0  0  0  0  0  0  0  0
   -2.0945   -1.0164    0.0000 C   0  0  0  0  0  0  0  0  0  0  0  0
   -1.3801   -1.4289    0.0000 C   0  0  0  0  0  0  0  0  0  0  0  0
   -2.0945   -1.8414    0.0000 C   0  0  0  0  0  0  0  0  0  0  0  0
   -3.3320   -0.3020    0.0000 S   0  0  0  0  0  0  0  0  0  0  0  0
   -3.3320    0.5230    0.0000 O   0  0  0  0  0  0  0  0  0  0  0  0
   -3.3320   -1.1270    0.0000 O   0  0  0  0  0  0  0  0  0  0  0  0
   -4.1570   -0.3020    0.0000 C   0  0  0  0  0  0  0  0  0  0  0  0
   -4.6420   -0.9694    0.0000 C   0  0  0  0  0  0  0  0  0  0  0  0
   -5.4266   -0.7145    0.0000 C   0  0  0  0  0  0  0  0  0  0  0  0
   -5.4266    0.1105    0.0000 C   0  0  0  0  0  0  0  0  0  0  0  0
   -4.6420    0.3655    0.0000 S   0  0  0  0  0  0  0  0  0  0  0  0
  1  2  1  0  0  0  0
  2  3  1  0  0  0  0
  3  4  1  0  0  0  0
  4  5  2  0  0  0  0
  5  6  1  0  0  0  0
  6  7  2  0  0  0  0
  7  8  1  0  0  0  0
  8  9  1  0  0  0  0
  5  9  1  0  0  0  0
  9 10  2  0  0  0  0
 10 11  1  0  0  0  0
 11 12  2  0  0  0  0
  4 12  1  0  0  0  0
  7 13  1  0  0  0  0
 13 14  2  0  0  0  0
 13 15  1  0  0  0  0
 15 16  1  0  0  0  0
 16 17  1  0  0  0  0
 17 18  1  0  0  0  0
 16 18  1  0  0  0  0
 15 19  1  0  0  0  0
 19 20  2  0  0  0  0
 19 21  2  0  0  0  0
 19 22  1  0  0  0  0
 22 23  2  0  0  0  0
 23 24  1  0  0  0  0
 24 25  2  0  0  0  0
 25 26  1  0  0  0  0
 22 26  1  0  0  0  0
M  END
> <ID>
CPD_237

$$$$
CPD_242
  Mrv1822 09091914012D          

 21 22  0  0  1  0            999 V2000
    0.7259   -0.0790    0.0000 C   0  0  0  0  0  0  0  0  0  0  0  0
    1.1384   -0.7934    0.0000 C   0  0  1  0  0  0  0  0  0  0  0  0
    1.5509   -1.5079    0.0000 O   0  0  0  0  0  0  0  0  0  0  0  0
    1.8529   -0.3809    0.0000 C   0  0  0  0  0  0  0  0  0  0  0  0
    1.8529    0.4441    0.0000 O   0  0  0  0  0  0  0  0  0  0  0  0
    2.5674   -0.7934    0.0000 N   0  0  0  0  0  0  0  0  0  0  0  0
    2.5674   -1.6184    0.0000 C   0  0  0  0  0  0  0  0  0  0  0  0
    2.9799   -2.3329    0.0000 C   0  0  0  0  0  0  0  0  0  0  0  0
    2.1549   -2.3329    0.0000 C   0  0  0  0  0  0  0  0  0  0  0  0
    3.2818   -0.3809    0.0000 S   0  0  0  0  0  0  0  0  0  0  0  0
    2.8693    0.3335    0.0000 O   0  0  0  0  0  0  0  0  0  0  0  0
    3.6943   -1.0954    0.0000 O   0  0  0  0  0  0  0  0  0  0  0  0
    3.9963    0.0316    0.0000 C   0  0  0  0  0  0  0  0  0  0  0  0
    4.0826    0.8521    0.0000 C   0  0  0  0  0  0  0  0  0  0  0  0
    4.8895    1.0236    0.0000 C   0  0  0  0  0  0  0  0  0  0  0  0
    5.3020    0.3091    0.0000 C   0  0  0  0  0  0  0  0  0  0  0  0
    4.7500   -0.3040    0.0000 S   0  0  0  0  0  0  0  0  0  0  0  0
    0.4240   -1.2059    0.0000 C   0  0  0  0  0  0  0  0  0  0  0  0
   -0.2905   -1.6184    0.0000 F   0  0  0  0  0  0  0  0  0  0  0  0
    0.0115   -0.4915    0.0000 F   0  0  0  0  0  0  0  0  0  0  0  0
    0.8365   -1.9204    0.0000 F   0  0  0  0  0  0  0  0  0  0  0  0
  2  1  1  0  0  0  0
  2  3  1  6  0  0  0
  2  4  1  1  0  0  0
  4  5  2  0  0  0  0
  4  6  1  0  0  0  0
  6  7  1  0  0  0  0
  7  8  1  0  0  0  0
  8  9  1  0  0  0  0
  7  9  1  0  0  0  0
  6 10  1  0  0  0  0
 10 11  2  0  0  0  0
 10 12  2  0  0  0  0
 10 13  1  0  0  0  0
 13 14  2  0  0  0  0
 14 15  1  0  0  0  0
 15 16  2  0  0  0  0
 16 17  1  0  0  0  0
 13 17  1  0  0  0  0
  2 18  1  0  0  0  0
 18 19  1  0  0  0  0
 18 20  1  0  0  0  0
 18 21  1  0  0  0  0
M  END
> <ID>
CPD_242

$$$$
CPD_247
  Mrv1822 09091914012D          

 28 30  0  0  0  0            999 V2000
    4.2087   -1.8416    0.0000 O   0  0  0  0  0  0  0  0  0  0  0  0
    4.7920   -2.4250    0.0000 C   0  0  0  0  0  0  0  0  0  0  0  0
    5.3754   -3.0083    0.0000 C   0  0  0  0  0  0  0  0  0  0  0  0
    4.7920   -3.5917    0.0000 N   0  0  0  0  0  0  0  0  0  0  0  0
    4.2087   -3.0083    0.0000 C   0  0  0  0  0  0  0  0  0  0  0  0
    4.7920   -4.4167    0.0000 C   0  0  0  0  0  0  0  0  0  0  0  0
    5.5065   -4.8292    0.0000 O   0  0  0  0  0  0  0  0  0  0  0  0
    4.0776   -4.8292    0.0000 C   0  0  0  0  0  0  0  0  0  0  0  0
    4.0776   -5.6542    0.0000 C   0  0  0  0  0  0  0  0  0  0  0  0
    3.3631   -6.0667    0.0000 C   0  0  0  0  0  0  0  0  0  0  0  0
    2.6486   -5.6542    0.0000 C   0  0  0  0  0  0  0  0  0  0  0  0
    1.9341   -6.0667    0.0000 N   0  0  0  0  0  0  0  0  0  0  0  0
    1.2197   -5.6542    0.0000 S   0  0  0  0  0  0  0  0  0  0  0  0
    0.8072   -6.3687    0.0000 O   0  0  0  0  0  0  0  0  0  0  0  0
    1.6322   -4.9397    0.0000 O   0  0  0  0  0  0  0  0  0  0  0  0
    0.5052   -5.2417    0.0000 C   0  0  0  0  0  0  0  0  0  0  0  0
   -0.2093   -5.6542    0.0000 C   0  0  0  0  0  0  0  0  0  0  0  0
   -0.9237   -5.2417    0.0000 C   0  0  0  0  0  0  0  0  0  0  0  0
   -0.9237   -4.4167    0.0000 C   0  0  0  0  0  0  0  0  0  0  0  0
   -0.2093   -4.0042    0.0000 C   0  0  0  0  0  0  0  0  0  0  0  0
    0.5052   -4.4167    0.0000 C   0  0  0  0  0  0  0  0  0  0  0  0
    2.6486   -4.8292    0.0000 C   0  0  0  0  0  0  0  0  0  0  0  0
    3.3631   -4.4167    0.0000 C   0  0  0  0  0  0  0  0  0  0  0  0
    3.3631   -3.5917    0.0000 Cl  0  0  0  0  0  0  0  0  0  0  0  0
    5.3754   -1.8416    0.0000 C   0  0  0  0  0  0  0  0  0  0  0  0
    5.9588   -1.2582    0.0000 F   0  0  0  0  0  0  0  0  0  0  0  0
    5.9588   -2.4250    0.0000 F   0  0  0  0  0  0  0  0  0  0  0  0
    4.7920   -1.2582    0.0000 F   0  0  0  0  0  0  0  0  0  0  0  0
  1  2  1  0  0  0  0
  2  3  1  0  0  0  0
  3  4  1  0  0  0  0
  4  5  1  0  0  0  0
  2  5  1  0  0  0  0
  4  6  1  0  0  0  0
  6  7  2  0  0  0  0
  6  8  1  0  0  0  0
  8  9  2  0  0  0  0
  9 10  1  0  0  0  0
 10 11  2  0  0  0  0
 11 12  1  0  0  0  0
 12 13  1  0  0  0  0
 13 14  2  0  0  0  0
 13 15  2  0  0  0  0
 13 16  1  0  0  0  0
 16 17  2  0  0  0  0
 17 18  1  0  0  0  0
 18 19  2  0  0  0  0
 19 20  1  0  0  0  0
 20 21  2  0  0  0  0
 16 21  1  0  0  0  0
 11 22  1  0  0  0  0
 22 23  2  0  0  0  0
  8 23  1  0  0  0  0
 23 24  1  0  0  0  0
  2 25  1  0  0  0  0
 25 26  1  0  0  0  0
 25 27  1  0  0  0  0
 25 28  1  0  0  0  0
M  END
> <ID>
CPD_247

$$$$
CPD_252
  Mrv1822 09091914012D          

 25 27  0  0  0  0            999 V2000
   -1.2978   -3.1291    0.0000 O   0  0  0  0  0  0  0  0  0  0  0  0
   -0.7145   -3.7125    0.0000 C   0  0  0  0  0  0  0  0  0  0  0  0
   -0.1311   -4.2959    0.0000 C   0  0  0  0  0  0  0  0  0  0  0  0
   -0.7145   -4.8792    0.0000 N   0  0  0  0  0  0  0  0  0  0  0  0
   -1.2978   -4.2959    0.0000 C   0  0  0  0  0  0  0  0  0  0  0  0
   -0.7145   -5.7042    0.0000 C   0  0  0  0  0  0  0  0  0  0  0  0
    0.0000   -6.1167    0.0000 O   0  0  0  0  0  0  0  0  0  0  0  0
   -1.4289   -6.1167    0.0000 C   0  0  0  0  0  0  0  0  0  0  0  0
   -1.4289   -6.9417    0.0000 C   0  0  0  0  0  0  0  0  0  0  0  0
   -2.1434   -7.3542    0.0000 C   0  0  0  0  0  0  0  0  0  0  0  0
   -2.8579   -6.9417    0.0000 C   0  0  0  0  0  0  0  0  0  0  0  0
   -2.8579   -6.1167    0.0000 C   0  0  0  0  0  0  0  0  0  0  0  0
   -3.5724   -5.7042    0.0000 F   0  0  0  0  0  0  0  0  0  0  0  0
   -2.1434   -5.7042    0.0000 C   0  0  0  0  0  0  0  0  0  0  0  0
   -2.1434   -8.1792    0.0000 C   0  0  0  0  0  0  0  0  0  0  0  0
   -1.4289   -8.5917    0.0000 N   0  0  0  0  0  0  0  0  0  0  0  0
   -1.4289   -9.4167    0.0000 C   0  0  0  0  0  0  0  0  0  0  0  0
   -2.1434   -9.8292    0.0000 C   0  0  0  0  0  0  0  0  0  0  0  0
   -2.8579   -9.4167    0.0000 C   0  0  0  0  0  0  0  0  0  0  0  0
   -2.8579   -8.5917    0.0000 C   0  0  0  0  0  0  0  0  0  0  0  0
   -3.5724   -8.1792    0.0000 F   0  0  0  0  0  0  0  0  0  0  0  0
   -0.1311   -3.1291    0.0000 C   0  0  0  0  0  0  0  0  0  0  0  0
    0.4523   -2.5458    0.0000 F   0  0  0  0  0  0  0  0  0  0  0  0
    0.4523   -3.7125    0.0000 F   0  0  0  0  0  0  0  0  0  0  0  0
   -0.7145   -2.5458    0.0000 F   0  0  0  0  0  0  0  0  0  0  0  0
  1  2  1  0  0  0  0
  2  3  1  0  0  0  0
  3  4  1  0  0  0  0
  4  5  1  0  0  0  0
  2  5  1  0  0  0  0
  4  6  1  0  0  0  0
  6  7  2  0  0  0  0
  6  8  1  0  0  0  0
  8  9  2  0  0  0  0
  9 10  1  0  0  0  0
 10 11  2  0  0  0  0
 11 12  1  0  0  0  0
 12 13  1  0  0  0  0
 12 14  2  0  0  0  0
  8 14  1  0  0  0  0
 10 15  1  0  0  0  0
 15 16  2  0  0  0  0
 16 17  1  0  0  0  0
 17 18  2  0  0  0  0
 18 19  1  0  0  0  0
 19 20  2  0  0  0  0
 15 20  1  0  0  0  0
 20 21  1  0  0  0  0
  2 22  1  0  0  0  0
 22 23  1  0  0  0  0
 22 24  1  0  0  0  0
 22 25  1  0  0  0  0
M  END
> <ID>
CPD_252

$$$$
CPD_257
  Mrv1822 09091914012D          

 20 21  0  0  0  0            999 V2000
    2.1991   -1.5194    0.0000 C   0  0  0  0  0  0  0  0  0  0  0  0
    2.5346   -0.7658    0.0000 C   0  0  0  0  0  0  0  0  0  0  0  0
    2.0497   -0.0983    0.0000 N   0  0  0  0  0  0  0  0  0  0  0  0
    1.2247   -0.0983    0.0000 C   0  0  0  0  0  0  0  0  0  0  0  0
    0.9698    0.6863    0.0000 C   0  0  0  0  0  0  0  0  0  0  0  0
    0.1851    0.9412    0.0000 Br  0  0  0  0  0  0  0  0  0  0  0  0
    1.6372    1.1712    0.0000 C   0  0  0  0  0  0  0  0  0  0  0  0
    1.6372    1.9962    0.0000 C   0  0  0  0  0  0  0  0  0  0  0  0
    0.9227    2.4087    0.0000 C   0  0  0  0  0  0  0  0  0  0  0  0
    0.2083    1.9962    0.0000 O   0  0  0  0  0  0  0  0  0  0  0  0
    0.9227    3.2337    0.0000 N   0  0  0  0  0  0  0  0  0  0  0  0
    0.3394    3.8171    0.0000 C   0  0  0  0  0  0  0  0  0  0  0  0
    0.9227    4.4005    0.0000 C   0  0  0  0  0  0  0  0  0  0  0  0
    0.3394    4.9838    0.0000 O   0  0  0  0  0  0  0  0  0  0  0  0
    1.5061    3.8171    0.0000 C   0  0  0  0  0  0  0  0  0  0  0  0
    1.5061    4.9838    0.0000 C   0  0  0  0  0  0  0  0  0  0  0  0
    2.0895    5.5672    0.0000 F   0  0  0  0  0  0  0  0  0  0  0  0
    2.0895    4.4005    0.0000 F   0  0  0  0  0  0  0  0  0  0  0  0
    0.9227    5.5672    0.0000 F   0  0  0  0  0  0  0  0  0  0  0  0
    2.3046    0.6863    0.0000 N   0  0  0  0  0  0  0  0  0  0  0  0
  1  2  1  0  0  0  0
  2  3  1  0  0  0  0
  3  4  1  0  0  0  0
  4  5  2  0  0  0  0
  5  6  1  0  0  0  0
  5  7  1  0  0  0  0
  7  8  1  0  0  0  0
  8  9  1  0  0  0  0
  9 10  2  0  0  0  0
  9 11  1  0  0  0  0
 11 12  1  0  0  0  0
 12 13  1  0  0  0  0
 13 14  1  0  0  0  0
 13 15  1  0  0  0  0
 11 15  1  0  0  0  0
 13 16  1  0  0  0  0
 16 17  1  0  0  0  0
 16 18  1  0  0  0  0
 16 19  1  0  0  0  0
  7 20  2  0  0  0  0
  3 20  1  0  0  0  0
M  END
> <ID>
CPD_257

$$$$
CPD_262
  Mrv1822 09091914012D          

 23 26  0  0  0  0            999 V2000
    6.2953    7.6750    0.0000 C   0  0  0  0  0  0  0  0  0  0  0  0
    5.5808    8.0875    0.0000 O   0  0  0  0  0  0  0  0  0  0  0  0
    4.8664    7.6750    0.0000 C   0  0  0  0  0  0  0  0  0  0  0  0
    4.8664    6.8500    0.0000 C   0  0  0  0  0  0  0  0  0  0  0  0
    4.1519    6.4375    0.0000 C   0  0  0  0  0  0  0  0  0  0  0  0
    3.4374    6.8500    0.0000 C   0  0  0  0  0  0  0  0  0  0  0  0
    2.8243    6.2979    0.0000 N   0  0  0  0  0  0  0  0  0  0  0  0
    3.1599    5.5442    0.0000 C   0  0  0  0  0  0  0  0  0  0  0  0
    3.9804    5.6305    0.0000 C   0  0  0  0  0  0  0  0  0  0  0  0
    2.7474    4.8298    0.0000 C   0  0  0  0  0  0  0  0  0  0  0  0
    3.1599    4.1153    0.0000 O   0  0  0  0  0  0  0  0  0  0  0  0
    1.9224    4.8298    0.0000 N   0  0  0  0  0  0  0  0  0  0  0  0
    1.5644    5.5731    0.0000 C   0  0  0  0  0  0  0  0  0  0  0  0
    0.7601    5.7567    0.0000 C   0  0  0  0  0  0  0  0  0  0  0  0
    0.1151    5.2423    0.0000 C   0  0  0  0  0  0  0  0  0  0  0  0
    0.1151    4.4173    0.0000 C   0  0  0  0  0  0  0  0  0  0  0  0
    0.7601    3.9029    0.0000 C   0  0  0  0  0  0  0  0  0  0  0  0
    1.5644    4.0865    0.0000 C   0  0  0  0  0  0  0  0  0  0  0  0
    0.5284    4.8298    0.0000 N   0  0  0  0  0  0  0  0  0  0  0  0
   -0.2966    4.8298    0.0000 C   0  0  0  0  0  0  0  0  0  0  0  0
    3.4374    7.6750    0.0000 C   0  0  0  0  0  0  0  0  0  0  0  0
    4.1519    8.0875    0.0000 C   0  0  0  0  0  0  0  0  0  0  0  0
    4.1519    8.9125    0.0000 N   0  0  0  0  0  0  0  0  0  0  0  0
  1  2  1  0  0  0  0
  2  3  1  0  0  0  0
  3  4  2  0  0  0  0
  4  5  1  0  0  0  0
  5  6  2  0  0  0  0
  6  7  1  0  0  0  0
  7  8  1  0  0  0  0
  8  9  2  0  0  0  0
  5  9  1  0  0  0  0
  8 10  1  0  0  0  0
 10 11  2  0  0  0  0
 10 12  1  0  0  0  0
 12 13  1  0  0  0  0
 13 14  1  0  0  0  0
 14 15  1  0  0  0  0
 15 16  1  0  0  0  0
 16 17  1  0  0  0  0
 17 18  1  0  0  0  0
 12 18  1  0  0  0  0
 17 19  1  0  0  0  0
 14 19  1  0  0  0  0
 19 20  1  0  0  0  0
  6 21  1  0  0  0  0
 21 22  2  0  0  0  0
  3 22  1  0  0  0  0
 22 23  1  0  0  0  0
M  END
> <ID>
CPD_262

$$$$
CPD_267
  Mrv1822 09091914012D          

 19 21  0  0  0  0            999 V2000
    6.0880    0.6363    0.0000 C   0  0  0  0  0  0  0  0  0  0  0  0
    5.2630    0.6363    0.0000 O   0  0  0  0  0  0  0  0  0  0  0  0
    4.8505   -0.0781    0.0000 C   0  0  0  0  0  0  0  0  0  0  0  0
    5.2630   -0.7926    0.0000 N   0  0  0  0  0  0  0  0  0  0  0  0
    4.8505   -1.5071    0.0000 C   0  0  0  0  0  0  0  0  0  0  0  0
    4.0255   -1.5071    0.0000 C   0  0  0  0  0  0  0  0  0  0  0  0
    3.6130   -0.7926    0.0000 N   0  0  0  0  0  0  0  0  0  0  0  0
    4.0255   -0.0781    0.0000 C   0  0  0  0  0  0  0  0  0  0  0  0
    3.6130    0.6363    0.0000 C   0  0  0  0  0  0  0  0  0  0  0  0
    4.0255    1.3508    0.0000 O   0  0  0  0  0  0  0  0  0  0  0  0
    2.7880    0.6363    0.0000 N   0  0  0  0  0  0  0  0  0  0  0  0
    2.4300    1.3796    0.0000 C   0  0  0  0  0  0  0  0  0  0  0  0
    1.6257    1.5632    0.0000 C   0  0  0  0  0  0  0  0  0  0  0  0
    0.9807    1.0488    0.0000 C   0  0  0  0  0  0  0  0  0  0  0  0
    0.9807    0.2238    0.0000 C   0  0  0  0  0  0  0  0  0  0  0  0
    1.6257   -0.2905    0.0000 C   0  0  0  0  0  0  0  0  0  0  0  0
    2.4300   -0.1070    0.0000 C   0  0  0  0  0  0  0  0  0  0  0  0
    1.3940    0.6363    0.0000 N   0  0  0  0  0  0  0  0  0  0  0  0
    0.5690    0.6363    0.0000 C   0  0  0  0  0  0  0  0  0  0  0  0
  1  2  1  0  0  0  0
  2  3  1  0  0  0  0
  3  4  2  0  0  0  0
  4  5  1  0  0  0  0
  5  6  2  0  0  0  0
  6  7  1  0  0  0  0
  7  8  2  0  0  0  0
  3  8  1  0  0  0  0
  8  9  1  0  0  0  0
  9 10  2  0  0  0  0
  9 11  1  0  0  0  0
 11 12  1  0  0  0  0
 12 13  1  0  0  0  0
 13 14  1  0  0  0  0
 14 15  1  0  0  0  0
 15 16  1  0  0  0  0
 16 17  1  0  0  0  0
 11 17  1  0  0  0  0
 16 18  1  0  0  0  0
 13 18  1  0  0  0  0
 18 19  1  0  0  0  0
M  END
> <ID>
CPD_267

$$$$
CPD_272
  Mrv1822 09091914012D          

 31 33  0  0  0  0            999 V2000
   -1.4289    0.8250    0.0000 C   0  0  0  0  0  0  0  0  0  0  0  0
   -1.4289    0.0000    0.0000 C   0  0  0  0  0  0  0  0  0  0  0  0
   -2.2539    0.0000    0.0000 C   0  0  0  0  0  0  0  0  0  0  0  0
   -0.6039    0.0000    0.0000 C   0  0  0  0  0  0  0  0  0  0  0  0
   -1.4289   -0.8250    0.0000 O   0  0  0  0  0  0  0  0  0  0  0  0
   -0.7145   -1.2375    0.0000 C   0  0  0  0  0  0  0  0  0  0  0  0
    0.0000   -0.8250    0.0000 O   0  0  0  0  0  0  0  0  0  0  0  0
   -0.7145   -2.0625    0.0000 N   0  0  0  0  0  0  0  0  0  0  0  0
    0.0000   -2.4750    0.0000 C   0  0  0  0  0  0  0  0  0  0  0  0
    0.0000   -3.3000    0.0000 C   0  0  0  0  0  0  0  0  0  0  0  0
   -0.7145   -3.7125    0.0000 C   0  0  0  0  0  0  0  0  0  0  0  0
   -1.4289   -3.3000    0.0000 C   0  0  0  0  0  0  0  0  0  0  0  0
   -1.4289   -2.4750    0.0000 C   0  0  0  0  0  0  0  0  0  0  0  0
   -0.7145   -4.5375    0.0000 N   0  0  0  0  0  0  0  0  0  0  0  0
   -1.4289   -4.9500    0.0000 C   0  0  0  0  0  0  0  0  0  0  0  0
   -1.4289   -5.7750    0.0000 O   0  0  0  0  0  0  0  0  0  0  0  0
   -2.1434   -4.5375    0.0000 C   0  0  0  0  0  0  0  0  0  0  0  0
   -2.8579   -4.9500    0.0000 C   0  0  0  0  0  0  0  0  0  0  0  0
   -3.5724   -4.5375    0.0000 C   0  0  0  0  0  0  0  0  0  0  0  0
   -3.5724   -3.7125    0.0000 C   0  0  0  0  0  0  0  0  0  0  0  0
   -2.8579   -3.3000    0.0000 N   0  0  0  0  0  0  0  0  0  0  0  0
   -2.1434   -3.7125    0.0000 C   0  0  0  0  0  0  0  0  0  0  0  0
   -0.0000   -4.9500    0.0000 S   0  0  0  0  0  0  0  0  0  0  0  0
   -0.4125   -5.6645    0.0000 O   0  0  0  0  0  0  0  0  0  0  0  0
    0.4125   -4.2355    0.0000 O   0  0  0  0  0  0  0  0  0  0  0  0
    0.7145   -5.3625    0.0000 C   0  0  0  0  0  0  0  0  0  0  0  0
    1.4289   -4.9500    0.0000 C   0  0  0  0  0  0  0  0  0  0  0  0
    2.1434   -5.3625    0.0000 C   0  0  0  0  0  0  0  0  0  0  0  0
    2.1434   -6.1875    0.0000 C   0  0  0  0  0  0  0  0  0  0  0  0
    1.4289   -6.6000    0.0000 C   0  0  0  0  0  0  0  0  0  0  0  0
    0.7145   -6.1875    0.0000 C   0  0  0  0  0  0  0  0  0  0  0  0
  1  2  1  0  0  0  0
  2  3  1  0  0  0  0
  2  4  1  0  0  0  0
  2  5  1  0  0  0  0
  5  6  1  0  0  0  0
  6  7  2  0  0  0  0
  6  8  1  0  0  0  0
  8  9  1  0  0  0  0
  9 10  1  0  0  0  0
 10 11  1  0  0  0  0
 11 12  1  0  0  0  0
 12 13  1  0  0  0  0
  8 13  1  0  0  0  0
 11 14  1  0  0  0  0
 14 15  1  0  0  0  0
 15 16  2  0  0  0  0
 15 17  1  0  0  0  0
 17 18  2  0  0  0  0
 18 19  1  0  0  0  0
 19 20  2  0  0  0  0
 20 21  1  0  0  0  0
 21 22  2  0  0  0  0
 17 22  1  0  0  0  0
 14 23  1  0  0  0  0
 23 24  2  0  0  0  0
 23 25  2  0  0  0  0
 23 26  1  0  0  0  0
 26 27  2  0  0  0  0
 27 28  1  0  0  0  0
 28 29  2  0  0  0  0
 29 30  1  0  0  0  0
 30 31  2  0  0  0  0
 26 31  1  0  0  0  0
M  END
> <ID>
CPD_272

$$$$
CPD_277
  Mrv1822 09091914012D          

 21 23  0  0  0  0            999 V2000
    6.2102    0.5065    0.0000 C   0  0  0  0  0  0  0  0  0  0  0  0
    5.7977    1.2210    0.0000 C   0  0  0  0  0  0  0  0  0  0  0  0
    4.9727    1.2210    0.0000 O   0  0  0  0  0  0  0  0  0  0  0  0
    6.2102    1.9354    0.0000 C   0  0  0  0  0  0  0  0  0  0  0  0
    6.6227    2.6499    0.0000 C   0  0  0  0  0  0  0  0  0  0  0  0
    7.3371    2.2374    0.0000 C   0  0  0  0  0  0  0  0  0  0  0  0
    6.9246    1.5229    0.0000 C   0  0  0  0  0  0  0  0  0  0  0  0
    5.4957    2.3479    0.0000 C   0  0  0  0  0  0  0  0  0  0  0  0
    5.4957    3.1729    0.0000 O   0  0  0  0  0  0  0  0  0  0  0  0
    4.7812    1.9354    0.0000 N   0  0  0  0  0  0  0  0  0  0  0  0
    4.0668    2.3479    0.0000 C   0  0  0  0  0  0  0  0  0  0  0  0
    3.3523    1.9354    0.0000 C   0  0  0  0  0  0  0  0  0  0  0  0
    3.3523    1.1104    0.0000 C   0  0  0  0  0  0  0  0  0  0  0  0
    2.6378    0.6979    0.0000 C   0  0  0  0  0  0  0  0  0  0  0  0
    1.9233    1.1104    0.0000 C   0  0  0  0  0  0  0  0  0  0  0  0
    1.1387    0.8555    0.0000 N   0  0  0  0  0  0  0  0  0  0  0  0
    0.6538    1.5229    0.0000 C   0  0  0  0  0  0  0  0  0  0  0  0
   -0.1712    1.5229    0.0000 C   0  0  0  0  0  0  0  0  0  0  0  0
    1.1387    2.1904    0.0000 N   0  0  0  0  0  0  0  0  0  0  0  0
    1.9233    1.9354    0.0000 C   0  0  0  0  0  0  0  0  0  0  0  0
    2.6378    2.3479    0.0000 C   0  0  0  0  0  0  0  0  0  0  0  0
  1  2  1  0  0  0  0
  2  3  2  0  0  0  0
  2  4  1  0  0  0  0
  4  5  1  0  0  0  0
  5  6  1  0  0  0  0
  6  7  1  0  0  0  0
  4  7  1  0  0  0  0
  4  8  1  0  0  0  0
  8  9  2  0  0  0  0
  8 10  1  0  0  0  0
 10 11  1  0  0  0  0
 11 12  1  0  0  0  0
 12 13  2  0  0  0  0
 13 14  1  0  0  0  0
 14 15  2  0  0  0  0
 15 16  1  0  0  0  0
 16 17  1  0  0  0  0
 17 18  1  0  0  0  0
 17 19  2  0  0  0  0
 19 20  1  0  0  0  0
 15 20  1  0  0  0  0
 20 21  2  0  0  0  0
 12 21  1  0  0  0  0
M  END
> <ID>
CPD_277

$$$$
CPD_282
  Mrv1822 09091914012D          

 31 35  0  0  0  0            999 V2000
    1.2577   -8.1229    0.0000 C   0  0  0  0  0  0  0  0  0  0  0  0
    2.0827   -8.1229    0.0000 C   0  0  0  0  0  0  0  0  0  0  0  0
    2.5677   -7.4555    0.0000 N   0  0  0  0  0  0  0  0  0  0  0  0
    3.3523   -7.7104    0.0000 C   0  0  0  0  0  0  0  0  0  0  0  0
    4.0668   -7.2979    0.0000 C   0  0  0  0  0  0  0  0  0  0  0  0
    4.7812   -7.7104    0.0000 C   0  0  0  0  0  0  0  0  0  0  0  0
    5.4957   -7.2979    0.0000 C   0  0  0  0  0  0  0  0  0  0  0  0
    6.2102   -7.7104    0.0000 N   0  0  0  0  0  0  0  0  0  0  0  0
    6.9246   -7.2979    0.0000 C   0  0  0  0  0  0  0  0  0  0  0  0
    6.9246   -6.4729    0.0000 O   0  0  0  0  0  0  0  0  0  0  0  0
    7.6391   -7.7104    0.0000 C   0  0  0  0  0  0  0  0  0  0  0  0
    8.3536   -7.2979    0.0000 C   0  0  0  0  0  0  0  0  0  0  0  0
    9.0681   -7.7104    0.0000 C   0  0  0  0  0  0  0  0  0  0  0  0
    9.0681   -8.5354    0.0000 C   0  0  0  0  0  0  0  0  0  0  0  0
    8.3536   -8.9479    0.0000 C   0  0  0  0  0  0  0  0  0  0  0  0
    7.6391   -8.5354    0.0000 C   0  0  0  0  0  0  0  0  0  0  0  0
    9.7825   -8.9479    0.0000 C   0  0  0  0  0  0  0  0  0  0  0  0
    9.7825   -9.7729    0.0000 C   0  0  0  0  0  0  0  0  0  0  0  0
   10.4970  -10.1854    0.0000 C   0  0  0  0  0  0  0  0  0  0  0  0
   11.2115   -9.7729    0.0000 C   0  0  0  0  0  0  0  0  0  0  0  0
   11.9259  -10.1854    0.0000 N   0  0  0  0  0  0  0  0  0  0  0  0
   11.9259  -11.0104    0.0000 C   0  0  0  0  0  0  0  0  0  0  0  0
   11.2115  -11.4229    0.0000 C   0  0  0  0  0  0  0  0  0  0  0  0
   10.4970  -11.0104    0.0000 C   0  0  0  0  0  0  0  0  0  0  0  0
   11.2115   -8.9479    0.0000 C   0  0  0  0  0  0  0  0  0  0  0  0
   11.9259   -8.5354    0.0000 O   0  0  0  0  0  0  0  0  0  0  0  0
   10.4970   -8.5354    0.0000 N   0  0  0  0  0  0  0  0  0  0  0  0
    4.7812   -8.5354    0.0000 C   0  0  0  0  0  0  0  0  0  0  0  0
    4.0668   -8.9479    0.0000 C   0  0  0  0  0  0  0  0  0  0  0  0
    3.3523   -8.5354    0.0000 C   0  0  0  0  0  0  0  0  0  0  0  0
    2.5677   -8.7904    0.0000 N   0  0  0  0  0  0  0  0  0  0  0  0
  1  2  1  0  0  0  0
  2  3  2  0  0  0  0
  3  4  1  0  0  0  0
  4  5  2  0  0  0  0
  5  6  1  0  0  0  0
  6  7  1  0  0  0  0
  7  8  1  0  0  0  0
  8  9  1  0  0  0  0
  9 10  2  0  0  0  0
  9 11  1  0  0  0  0
 11 12  1  0  0  0  0
 12 13  1  0  0  0  0
 13 14  1  0  0  0  0
 14 15  1  0  0  0  0
 15 16  1  0  0  0  0
 11 16  1  0  0  0  0
 14 17  1  0  0  0  0
 17 18  2  0  0  0  0
 18 19  1  0  0  0  0
 19 20  2  0  0  0  0
 20 21  1  0  0  0  0
 21 22  2  0  0  0  0
 22 23  1  0  0  0  0
 23 24  2  0  0  0  0
 19 24  1  0  0  0  0
 20 25  1  0  0  0  0
 25 26  1  0  0  0  0
 25 27  2  0  0  0  0
 17 27  1  0  0  0  0
  6 28  2  0  0  0  0
 28 29  1  0  0  0  0
 29 30  2  0  0  0  0
  4 30  1  0  0  0  0
 30 31  1  0  0  0  0
  2 31  1  0  0  0  0
M  END
> <ID>
CPD_282

$$$$
CPD_287
  Mrv1822 09091914012D          

 23 25  0  0  0  0            999 V2000
    1.4358   -2.7631    0.0000 C   0  0  0  0  0  0  0  0  0  0  0  0
    0.8838   -2.1500    0.0000 C   0  0  0  0  0  0  0  0  0  0  0  0
    0.0768   -2.3215    0.0000 C   0  0  0  0  0  0  0  0  0  0  0  0
    1.1387   -1.3654    0.0000 N   0  0  0  0  0  0  0  0  0  0  0  0
    0.6538   -0.6979    0.0000 C   0  0  0  0  0  0  0  0  0  0  0  0
    1.1387   -0.0305    0.0000 C   0  0  0  0  0  0  0  0  0  0  0  0
    0.8838    0.7541    0.0000 C   0  0  0  0  0  0  0  0  0  0  0  0
    0.0768    0.9256    0.0000 O   0  0  0  0  0  0  0  0  0  0  0  0
    1.4358    1.3672    0.0000 N   0  0  0  0  0  0  0  0  0  0  0  0
    1.1809    2.1518    0.0000 C   0  0  0  0  0  0  0  0  0  0  0  0
    1.9978    2.2667    0.0000 C   0  0  0  0  0  0  0  0  0  0  0  0
    0.4524    1.7645    0.0000 C   0  0  0  0  0  0  0  0  0  0  0  0
   -0.2472    2.2017    0.0000 C   0  0  0  0  0  0  0  0  0  0  0  0
   -0.2184    3.0262    0.0000 C   0  0  0  0  0  0  0  0  0  0  0  0
    0.5100    3.4135    0.0000 N   0  0  0  0  0  0  0  0  0  0  0  0
    0.5388    4.2380    0.0000 C   0  0  0  0  0  0  0  0  0  0  0  0
    1.2097    2.9763    0.0000 C   0  0  0  0  0  0  0  0  0  0  0  0
    1.9233   -0.2854    0.0000 C   0  0  0  0  0  0  0  0  0  0  0  0
    2.6378    0.1271    0.0000 C   0  0  0  0  0  0  0  0  0  0  0  0
    3.3523   -0.2854    0.0000 C   0  0  0  0  0  0  0  0  0  0  0  0
    3.3523   -1.1104    0.0000 C   0  0  0  0  0  0  0  0  0  0  0  0
    2.6378   -1.5229    0.0000 C   0  0  0  0  0  0  0  0  0  0  0  0
    1.9233   -1.1104    0.0000 C   0  0  0  0  0  0  0  0  0  0  0  0
  1  2  1  0  0  0  0
  2  3  1  0  0  0  0
  2  4  1  0  0  0  0
  4  5  1  0  0  0  0
  5  6  2  0  0  0  0
  6  7  1  0  0  0  0
  7  8  2  0  0  0  0
  7  9  1  0  0  0  0
  9 10  1  0  0  0  0
 10 11  1  0  0  0  0
 10 12  1  0  0  0  0
 12 13  1  0  0  0  0
 13 14  1  0  0  0  0
 14 15  1  0  0  0  0
 15 16  1  0  0  0  0
 15 17  1  0  0  0  0
 10 17  1  0  0  0  0
  6 18  1  0  0  0  0
 18 19  2  0  0  0  0
 19 20  1  0  0  0  0
 20 21  2  0  0  0  0
 21 22  1  0  0  0  0
 22 23  2  0  0  0  0
  4 23  1  0  0  0  0
 18 23  1  0  0  0  0
M  END
> <ID>
CPD_287

$$$$
CPD_292
  Mrv1822 09091914012D          

 18 19  0  0  0  0            999 V2000
   -1.6097   -0.5440    0.0000 C   0  0  0  0  0  0  0  0  0  0  0  0
   -1.6097   -1.3690    0.0000 N   0  0  0  0  0  0  0  0  0  0  0  0
   -0.9423   -1.8539    0.0000 C   0  0  0  0  0  0  0  0  0  0  0  0
   -1.1972   -2.6386    0.0000 C   0  0  0  0  0  0  0  0  0  0  0  0
   -2.0222   -2.6386    0.0000 C   0  0  0  0  0  0  0  0  0  0  0  0
   -2.5071   -3.3060    0.0000 C   0  0  0  0  0  0  0  0  0  0  0  0
   -2.1716   -4.0597    0.0000 O   0  0  0  0  0  0  0  0  0  0  0  0
   -3.3276   -3.2198    0.0000 N   0  0  0  0  0  0  0  0  0  0  0  0
   -3.8125   -3.8872    0.0000 C   0  0  0  0  0  0  0  0  0  0  0  0
   -4.3856   -3.2938    0.0000 C   0  0  0  0  0  0  0  0  0  0  0  0
   -3.0710   -4.2489    0.0000 C   0  0  0  0  0  0  0  0  0  0  0  0
   -3.0135   -5.0719    0.0000 C   0  0  0  0  0  0  0  0  0  0  0  0
   -3.6974   -5.5332    0.0000 C   0  0  0  0  0  0  0  0  0  0  0  0
   -4.4389   -5.1715    0.0000 N   0  0  0  0  0  0  0  0  0  0  0  0
   -5.1229   -5.6329    0.0000 C   0  0  0  0  0  0  0  0  0  0  0  0
   -4.4965   -4.3485    0.0000 C   0  0  0  0  0  0  0  0  0  0  0  0
   -2.2771   -1.8539    0.0000 C   0  0  0  0  0  0  0  0  0  0  0  0
   -3.0618   -1.5990    0.0000 O   0  0  0  0  0  0  0  0  0  0  0  0
  1  2  1  0  0  0  0
  2  3  1  0  0  0  0
  3  4  1  0  0  0  0
  4  5  1  0  0  0  0
  5  6  1  0  0  0  0
  6  7  2  0  0  0  0
  6  8  1  0  0  0  0
  8  9  1  0  0  0  0
  9 10  1  0  0  0  0
  9 11  1  0  0  0  0
 11 12  1  0  0  0  0
 12 13  1  0  0  0  0
 13 14  1  0  0  0  0
 14 15  1  0  0  0  0
 14 16  1  0  0  0  0
  9 16  1  0  0  0  0
  5 17  1  0  0  0  0
  2 17  1  0  0  0  0
 17 18  2  0  0  0  0
M  END
> <ID>
CPD_292

$$$$
CPD_297
  Mrv1822 09091914012D          

 21 22  0  0  0  0            999 V2000
    3.3882   -3.9320    0.0000 C   0  0  0  0  0  0  0  0  0  0  0  0
    2.6737   -3.5195    0.0000 N   0  0  0  0  0  0  0  0  0  0  0  0
    1.9592   -3.9320    0.0000 C   0  0  0  0  0  0  0  0  0  0  0  0
    1.2448   -3.5195    0.0000 C   0  0  0  0  0  0  0  0  0  0  0  0
    1.2448   -2.6945    0.0000 C   0  0  0  0  0  0  0  0  0  0  0  0
    1.9592   -2.2820    0.0000 C   0  0  0  0  0  0  0  0  0  0  0  0
    1.4289   -1.6500    0.0000 C   0  0  0  0  0  0  0  0  0  0  0  0
    2.6737   -2.6945    0.0000 C   0  0  0  0  0  0  0  0  0  0  0  0
    2.4895   -1.6500    0.0000 N   0  0  0  0  0  0  0  0  0  0  0  0
    2.2074   -0.8748    0.0000 C   0  0  0  0  0  0  0  0  0  0  0  0
    1.3949   -0.7315    0.0000 O   0  0  0  0  0  0  0  0  0  0  0  0
    2.7377   -0.2428    0.0000 C   0  0  0  0  0  0  0  0  0  0  0  0
    2.4555    0.5325    0.0000 C   0  0  0  0  0  0  0  0  0  0  0  0
    2.9858    1.1645    0.0000 C   0  0  0  0  0  0  0  0  0  0  0  0
    2.7036    1.9397    0.0000 N   0  0  0  0  0  0  0  0  0  0  0  0
    3.2339    2.5717    0.0000 C   0  0  0  0  0  0  0  0  0  0  0  0
    2.9518    3.3469    0.0000 C   0  0  0  0  0  0  0  0  0  0  0  0
    4.0464    2.4284    0.0000 O   0  0  0  0  0  0  0  0  0  0  0  0
    3.7983    1.0212    0.0000 N   0  0  0  0  0  0  0  0  0  0  0  0
    4.0804    0.2460    0.0000 C   0  0  0  0  0  0  0  0  0  0  0  0
    3.5501   -0.3860    0.0000 C   0  0  0  0  0  0  0  0  0  0  0  0
  1  2  1  0  0  0  0
  2  3  1  0  0  0  0
  3  4  1  0  0  0  0
  4  5  1  0  0  0  0
  5  6  1  0  0  0  0
  6  7  1  0  0  0  0
  6  8  1  0  0  0  0
  2  8  1  0  0  0  0
  6  9  1  0  0  0  0
  9 10  1  0  0  0  0
 10 11  2  0  0  0  0
 10 12  1  0  0  0  0
 12 13  2  0  0  0  0
 13 14  1  0  0  0  0
 14 15  1  0  0  0  0
 15 16  1  0  0  0  0
 16 17  1  0  0  0  0
 16 18  2  0  0  0  0
 14 19  2  0  0  0  0
 19 20  1  0  0  0  0
 20 21  2  0  0  0  0
 12 21  1  0  0  0  0
M  END
> <ID>
CPD_297

$$$$
CPD_302
  Mrv1822 09091914012D          

 26 28  0  0  0  0            999 V2000
    0.4323   -6.9627    0.0000 C   0  0  0  0  0  0  0  0  0  0  0  0
   -0.2822   -6.5502    0.0000 N   0  0  0  0  0  0  0  0  0  0  0  0
   -0.9966   -6.9627    0.0000 C   0  0  0  0  0  0  0  0  0  0  0  0
   -1.7111   -6.5502    0.0000 C   0  0  0  0  0  0  0  0  0  0  0  0
   -1.7111   -5.7252    0.0000 C   0  0  0  0  0  0  0  0  0  0  0  0
   -0.9966   -5.3127    0.0000 C   0  0  0  0  0  0  0  0  0  0  0  0
   -1.5269   -4.6808    0.0000 C   0  0  0  0  0  0  0  0  0  0  0  0
   -0.2822   -5.7252    0.0000 C   0  0  0  0  0  0  0  0  0  0  0  0
   -0.4663   -4.6808    0.0000 N   0  0  0  0  0  0  0  0  0  0  0  0
   -0.7485   -3.9055    0.0000 C   0  0  0  0  0  0  0  0  0  0  0  0
   -1.5610   -3.7623    0.0000 O   0  0  0  0  0  0  0  0  0  0  0  0
   -0.2182   -3.2735    0.0000 C   0  0  0  0  0  0  0  0  0  0  0  0
   -0.5004   -2.4983    0.0000 C   0  0  0  0  0  0  0  0  0  0  0  0
    0.0299   -1.8663    0.0000 C   0  0  0  0  0  0  0  0  0  0  0  0
   -0.2522   -1.0910    0.0000 O   0  0  0  0  0  0  0  0  0  0  0  0
   -1.0647   -0.9478    0.0000 C   0  0  0  0  0  0  0  0  0  0  0  0
   -1.3469   -0.1725    0.0000 C   0  0  0  0  0  0  0  0  0  0  0  0
   -2.1593   -0.0293    0.0000 C   0  0  0  0  0  0  0  0  0  0  0  0
   -2.4415    0.7460    0.0000 C   0  0  0  0  0  0  0  0  0  0  0  0
   -1.9112    1.3780    0.0000 C   0  0  0  0  0  0  0  0  0  0  0  0
   -1.0987    1.2347    0.0000 C   0  0  0  0  0  0  0  0  0  0  0  0
   -0.5684    1.8667    0.0000 Cl  0  0  0  0  0  0  0  0  0  0  0  0
   -0.8166    0.4594    0.0000 C   0  0  0  0  0  0  0  0  0  0  0  0
    0.8424   -2.0096    0.0000 C   0  0  0  0  0  0  0  0  0  0  0  0
    1.1246   -2.7848    0.0000 C   0  0  0  0  0  0  0  0  0  0  0  0
    0.5943   -3.4168    0.0000 C   0  0  0  0  0  0  0  0  0  0  0  0
  1  2  1  0  0  0  0
  2  3  1  0  0  0  0
  3  4  1  0  0  0  0
  4  5  1  0  0  0  0
  5  6  1  0  0  0  0
  6  7  1  0  0  0  0
  6  8  1  0  0  0  0
  2  8  1  0  0  0  0
  6  9  1  0  0  0  0
  9 10  1  0  0  0  0
 10 11  2  0  0  0  0
 10 12  1  0  0  0  0
 12 13  2  0  0  0  0
 13 14  1  0  0  0  0
 14 15  1  0  0  0  0
 15 16  1  0  0  0  0
 16 17  1  0  0  0  0
 17 18  2  0  0  0  0
 18 19  1  0  0  0  0
 19 20  2  0  0  0  0
 20 21  1  0  0  0  0
 21 22  1  0  0  0  0
 21 23  2  0  0  0  0
 17 23  1  0  0  0  0
 14 24  2  0  0  0  0
 24 25  1  0  0  0  0
 25 26  2  0  0  0  0
 12 26  1  0  0  0  0
M  END
> <ID>
CPD_302

$$$$
CPD_307
  Mrv1822 09091914012D          

 20 21  0  0  0  0            999 V2000
   -1.3768   -4.1688    0.0000 C   0  0  0  0  0  0  0  0  0  0  0  0
   -1.0946   -3.3935    0.0000 N   0  0  0  0  0  0  0  0  0  0  0  0
   -1.6249   -2.7615    0.0000 C   0  0  0  0  0  0  0  0  0  0  0  0
   -1.3428   -1.9863    0.0000 C   0  0  0  0  0  0  0  0  0  0  0  0
   -0.5303   -1.8430    0.0000 C   0  0  0  0  0  0  0  0  0  0  0  0
    0.0000   -2.4750    0.0000 C   0  0  0  0  0  0  0  0  0  0  0  0
    0.5303   -1.8430    0.0000 C   0  0  0  0  0  0  0  0  0  0  0  0
   -0.2822   -3.2502    0.0000 C   0  0  0  0  0  0  0  0  0  0  0  0
    0.7145   -2.8875    0.0000 N   0  0  0  0  0  0  0  0  0  0  0  0
    1.4289   -2.4750    0.0000 C   0  0  0  0  0  0  0  0  0  0  0  0
    1.4289   -1.6500    0.0000 O   0  0  0  0  0  0  0  0  0  0  0  0
    2.1434   -2.8875    0.0000 C   0  0  0  0  0  0  0  0  0  0  0  0
    2.8579   -2.4750    0.0000 C   0  0  0  0  0  0  0  0  0  0  0  0
    3.5724   -2.8875    0.0000 C   0  0  0  0  0  0  0  0  0  0  0  0
    4.2868   -2.4750    0.0000 C   0  0  0  0  0  0  0  0  0  0  0  0
    5.0013   -2.8875    0.0000 C   0  0  0  0  0  0  0  0  0  0  0  0
    5.0013   -3.7125    0.0000 C   0  0  0  0  0  0  0  0  0  0  0  0
    5.7158   -4.1250    0.0000 N   0  0  0  0  0  0  0  0  0  0  0  0
    4.2868   -4.1250    0.0000 N   0  0  0  0  0  0  0  0  0  0  0  0
    3.5724   -3.7125    0.0000 C   0  0  0  0  0  0  0  0  0  0  0  0
  1  2  1  0  0  0  0
  2  3  1  0  0  0  0
  3  4  1  0  0  0  0
  4  5  1  0  0  0  0
  5  6  1  0  0  0  0
  6  7  1  0  0  0  0
  6  8  1  0  0  0  0
  2  8  1  0  0  0  0
  6  9  1  0  0  0  0
  9 10  1  0  0  0  0
 10 11  2  0  0  0  0
 10 12  1  0  0  0  0
 12 13  1  0  0  0  0
 13 14  1  0  0  0  0
 14 15  2  0  0  0  0
 15 16  1  0  0  0  0
 16 17  2  0  0  0  0
 17 18  1  0  0  0  0
 17 19  1  0  0  0  0
 19 20  2  0  0  0  0
 14 20  1  0  0  0  0
M  END
> <ID>
CPD_307

$$$$
CPD_312
  Mrv1822 09091914012D          

 19 21  0  0  0  0            999 V2000
    3.2704    1.5395    0.0000 O   0  0  0  0  0  0  0  0  0  0  0  0
    3.2704    0.7145    0.0000 C   0  0  0  0  0  0  0  0  0  0  0  0
    2.5559    0.3020    0.0000 N   0  0  0  0  0  0  0  0  0  0  0  0
    1.8414    0.7145    0.0000 C   0  0  0  0  0  0  0  0  0  0  0  0
    1.1270    0.3020    0.0000 C   0  0  0  0  0  0  0  0  0  0  0  0
    1.1270   -0.5230    0.0000 C   0  0  0  0  0  0  0  0  0  0  0  0
    0.4125   -0.9355    0.0000 C   0  0  0  0  0  0  0  0  0  0  0  0
   -0.3020   -0.5230    0.0000 C   0  0  0  0  0  0  0  0  0  0  0  0
   -0.3020    0.3020    0.0000 C   0  0  0  0  0  0  0  0  0  0  0  0
    0.4125    0.7145    0.0000 C   0  0  0  0  0  0  0  0  0  0  0  0
    2.5559   -0.5230    0.0000 C   0  0  0  0  0  0  0  0  0  0  0  0
    2.9684   -1.2375    0.0000 C   0  0  0  0  0  0  0  0  0  0  0  0
    2.1434   -1.2375    0.0000 C   0  0  0  0  0  0  0  0  0  0  0  0
    3.9849    0.3020    0.0000 C   0  0  0  0  0  0  0  0  0  0  0  0
    4.6993    0.7145    0.0000 C   0  0  0  0  0  0  0  0  0  0  0  0
    5.4138    0.3020    0.0000 C   0  0  0  0  0  0  0  0  0  0  0  0
    5.4138   -0.5230    0.0000 C   0  0  0  0  0  0  0  0  0  0  0  0
    4.6993   -0.9355    0.0000 N   0  0  0  0  0  0  0  0  0  0  0  0
    3.9849   -0.5230    0.0000 C   0  0  0  0  0  0  0  0  0  0  0  0
  1  2  2  0  0  0  0
  2  3  1  0  0  0  0
  3  4  1  0  0  0  0
  4  5  1  0  0  0  0
  5  6  2  0  0  0  0
  6  7  1  0  0  0  0
  7  8  2  0  0  0  0
  8  9  1  0  0  0  0
  9 10  2  0  0  0  0
  5 10  1  0  0  0  0
  3 11  1  0  0  0  0
 11 12  1  0  0  0  0
 12 13  1  0  0  0  0
 11 13  1  0  0  0  0
  2 14  1  0  0  0  0
 14 15  2  0  0  0  0
 15 16  1  0  0  0  0
 16 17  2  0  0  0  0
 17 18  1  0  0  0  0
 18 19  2  0  0  0  0
 14 19  1  0  0  0  0
M  END
> <ID>
CPD_312

$$$$
CPD_317
  Mrv1822 09091914012D          

 25 27  0  0  0  0            999 V2000
    2.8579   -4.9500    0.0000 C   0  0  0  0  0  0  0  0  0  0  0  0
    2.1434   -5.3625    0.0000 O   0  0  0  0  0  0  0  0  0  0  0  0
    1.4289   -4.9500    0.0000 C   0  0  0  0  0  0  0  0  0  0  0  0
    0.7145   -5.3625    0.0000 C   0  0  0  0  0  0  0  0  0  0  0  0
    0.0000   -4.9500    0.0000 C   0  0  0  0  0  0  0  0  0  0  0  0
   -0.7145   -5.3625    0.0000 F   0  0  0  0  0  0  0  0  0  0  0  0
    0.0000   -4.1250    0.0000 C   0  0  0  0  0  0  0  0  0  0  0  0
   -0.7145   -3.7125    0.0000 F   0  0  0  0  0  0  0  0  0  0  0  0
    0.7145   -3.7125    0.0000 C   0  0  0  0  0  0  0  0  0  0  0  0
    1.4289   -4.1250    0.0000 C   0  0  0  0  0  0  0  0  0  0  0  0
    2.1434   -3.7125    0.0000 C   0  0  0  0  0  0  0  0  0  0  0  0
    2.8579   -4.1250    0.0000 C   0  0  0  0  0  0  0  0  0  0  0  0
    3.5724   -3.7125    0.0000 C   0  0  0  0  0  0  0  0  0  0  0  0
    3.5724   -2.8875    0.0000 O   0  0  0  0  0  0  0  0  0  0  0  0
    4.2868   -4.1250    0.0000 N   0  0  0  0  0  0  0  0  0  0  0  0
    5.0013   -3.7125    0.0000 C   0  0  0  0  0  0  0  0  0  0  0  0
    5.7158   -4.1250    0.0000 C   0  0  0  0  0  0  0  0  0  0  0  0
    6.4302   -3.7125    0.0000 C   0  0  0  0  0  0  0  0  0  0  0  0
    7.1447   -4.1250    0.0000 C   0  0  0  0  0  0  0  0  0  0  0  0
    7.1447   -4.9500    0.0000 C   0  0  0  0  0  0  0  0  0  0  0  0
    6.4302   -5.3625    0.0000 C   0  0  0  0  0  0  0  0  0  0  0  0
    5.7158   -4.9500    0.0000 C   0  0  0  0  0  0  0  0  0  0  0  0
    4.2868   -4.9500    0.0000 C   0  0  0  0  0  0  0  0  0  0  0  0
    4.6993   -5.6645    0.0000 C   0  0  0  0  0  0  0  0  0  0  0  0
    3.8743   -5.6645    0.0000 C   0  0  0  0  0  0  0  0  0  0  0  0
  1  2  1  0  0  0  0
  2  3  1  0  0  0  0
  3  4  2  0  0  0  0
  4  5  1  0  0  0  0
  5  6  1  0  0  0  0
  5  7  2  0  0  0  0
  7  8  1  0  0  0  0
  7  9  1  0  0  0  0
  9 10  2  0  0  0  0
  3 10  1  0  0  0  0
 10 11  1  0  0  0  0
 11 12  1  0  0  0  0
 12 13  1  0  0  0  0
 13 14  2  0  0  0  0
 13 15  1  0  0  0  0
 15 16  1  0  0  0  0
 16 17  1  0  0  0  0
 17 18  2  0  0  0  0
 18 19  1  0  0  0  0
 19 20  2  0  0  0  0
 20 21  1  0  0  0  0
 21 22  2  0  0  0  0
 17 22  1  0  0  0  0
 15 23  1  0  0  0  0
 23 24  1  0  0  0  0
 24 25  1  0  0  0  0
 23 25  1  0  0  0  0
M  END
> <ID>
CPD_317

$$$$
CPD_322
  Mrv1822 09091914012D          

 20 22  0  0  0  0            999 V2000
    1.1270   -1.3390    0.0000 C   0  0  0  0  0  0  0  0  0  0  0  0
    1.0407   -0.5185    0.0000 C   0  0  0  0  0  0  0  0  0  0  0  0
    1.8657   -0.5185    0.0000 C   0  0  0  0  0  0  0  0  0  0  0  0
    0.2338   -0.6900    0.0000 C   0  0  0  0  0  0  0  0  0  0  0  0
   -0.1787    0.0244    0.0000 N   0  0  0  0  0  0  0  0  0  0  0  0
    0.3733    0.6375    0.0000 C   0  0  0  0  0  0  0  0  0  0  0  0
    1.1270    0.3020    0.0000 C   0  0  0  0  0  0  0  0  0  0  0  0
    1.8414    0.7145    0.0000 C   0  0  0  0  0  0  0  0  0  0  0  0
    1.8414    1.5395    0.0000 O   0  0  0  0  0  0  0  0  0  0  0  0
    2.5559    0.3020    0.0000 N   0  0  0  0  0  0  0  0  0  0  0  0
    3.2704    0.7145    0.0000 C   0  0  0  0  0  0  0  0  0  0  0  0
    3.9849    0.3020    0.0000 C   0  0  0  0  0  0  0  0  0  0  0  0
    4.6993    0.7145    0.0000 C   0  0  0  0  0  0  0  0  0  0  0  0
    5.4138    0.3020    0.0000 C   0  0  0  0  0  0  0  0  0  0  0  0
    5.4138   -0.5230    0.0000 C   0  0  0  0  0  0  0  0  0  0  0  0
    4.6993   -0.9355    0.0000 C   0  0  0  0  0  0  0  0  0  0  0  0
    3.9849   -0.5230    0.0000 C   0  0  0  0  0  0  0  0  0  0  0  0
    2.5559   -0.5230    0.0000 C   0  0  0  0  0  0  0  0  0  0  0  0
    2.9684   -1.2375    0.0000 C   0  0  0  0  0  0  0  0  0  0  0  0
    2.1434   -1.2375    0.0000 C   0  0  0  0  0  0  0  0  0  0  0  0
  1  2  1  0  0  0  0
  2  3  1  0  0  0  0
  2  4  1  0  0  0  0
  4  5  1  0  0  0  0
  5  6  1  0  0  0  0
  6  7  1  0  0  0  0
  2  7  1  0  0  0  0
  7  8  1  0  0  0  0
  8  9  2  0  0  0  0
  8 10  1  0  0  0  0
 10 11  1  0  0  0  0
 11 12  1  0  0  0  0
 12 13  2  0  0  0  0
 13 14  1  0  0  0  0
 14 15  2  0  0  0  0
 15 16  1  0  0  0  0
 16 17  2  0  0  0  0
 12 17  1  0  0  0  0
 10 18  1  0  0  0  0
 18 19  1  0  0  0  0
 19 20  1  0  0  0  0
 18 20  1  0  0  0  0
M  END
> <ID>
CPD_322

$$$$
CPD_327
  Mrv1822 09091914012D          

 28 30  0  0  0  0            999 V2000
    3.5724   -2.8875    0.0000 C   0  0  0  0  0  0  0  0  0  0  0  0
    3.5724   -3.7125    0.0000 N   0  0  0  0  0  0  0  0  0  0  0  0
    2.8579   -4.1250    0.0000 C   0  0  0  0  0  0  0  0  0  0  0  0
    2.1434   -3.7125    0.0000 C   0  0  0  0  0  0  0  0  0  0  0  0
    1.4289   -4.1250    0.0000 S   0  0  0  0  0  0  0  0  0  0  0  0
    0.7145   -3.7125    0.0000 C   0  0  0  0  0  0  0  0  0  0  0  0
    0.0000   -4.1250    0.0000 C   0  0  0  0  0  0  0  0  0  0  0  0
   -0.7145   -3.7125    0.0000 C   0  0  0  0  0  0  0  0  0  0  0  0
   -0.7145   -2.8875    0.0000 C   0  0  0  0  0  0  0  0  0  0  0  0
   -1.4289   -2.4750    0.0000 C   0  0  0  0  0  0  0  0  0  0  0  0
    0.0000   -2.4750    0.0000 C   0  0  0  0  0  0  0  0  0  0  0  0
    0.7145   -2.8875    0.0000 C   0  0  0  0  0  0  0  0  0  0  0  0
    2.8579   -4.9500    0.0000 C   0  0  0  0  0  0  0  0  0  0  0  0
    3.2704   -5.6645    0.0000 C   0  0  0  0  0  0  0  0  0  0  0  0
    2.4454   -5.6645    0.0000 C   0  0  0  0  0  0  0  0  0  0  0  0
    4.2868   -4.1250    0.0000 C   0  0  0  0  0  0  0  0  0  0  0  0
    4.2868   -4.9500    0.0000 O   0  0  0  0  0  0  0  0  0  0  0  0
    5.0013   -3.7125    0.0000 C   0  0  0  0  0  0  0  0  0  0  0  0
    5.7158   -4.1250    0.0000 C   0  0  0  0  0  0  0  0  0  0  0  0
    6.4302   -3.7125    0.0000 C   0  0  0  0  0  0  0  0  0  0  0  0
    7.1447   -4.1250    0.0000 C   0  0  0  0  0  0  0  0  0  0  0  0
    7.1447   -4.9500    0.0000 C   0  0  0  0  0  0  0  0  0  0  0  0
    6.4302   -5.3625    0.0000 C   0  0  0  0  0  0  0  0  0  0  0  0
    5.7158   -4.9500    0.0000 C   0  0  0  0  0  0  0  0  0  0  0  0
    5.0013   -5.3625    0.0000 N   0  0  0  0  0  0  0  0  0  0  0  0
    7.8592   -5.3625    0.0000 C   0  0  0  0  0  0  0  0  0  0  0  0
    8.5737   -4.9500    0.0000 O   0  0  0  0  0  0  0  0  0  0  0  0
    7.8592   -6.1875    0.0000 O   0  0  0  0  0  0  0  0  0  0  0  0
  1  2  1  0  0  0  0
  2  3  1  0  0  0  0
  3  4  1  0  0  0  0
  4  5  1  0  0  0  0
  5  6  1  0  0  0  0
  6  7  2  0  0  0  0
  7  8  1  0  0  0  0
  8  9  2  0  0  0  0
  9 10  1  0  0  0  0
  9 11  1  0  0  0  0
 11 12  2  0  0  0  0
  6 12  1  0  0  0  0
  3 13  1  0  0  0  0
 13 14  1  0  0  0  0
 14 15  1  0  0  0  0
 13 15  1  0  0  0  0
  2 16  1  0  0  0  0
 16 17  2  0  0  0  0
 16 18  1  0  0  0  0
 18 19  1  0  0  0  0
 19 20  2  0  0  0  0
 20 21  1  0  0  0  0
 21 22  2  0  0  0  0
 22 23  1  0  0  0  0
 23 24  2  0  0  0  0
 19 24  1  0  0  0  0
 24 25  1  0  0  0  0
 22 26  1  0  0  0  0
 26 27  1  0  0  0  0
 26 28  2  0  0  0  0
M  END
> <ID>
CPD_327

$$$$
CPD_332
  Mrv1822 09091914012D          

 22 23  0  0  1  0            999 V2000
    1.4289   -4.9500    0.0000 C   0  0  0  0  0  0  0  0  0  0  0  0
    2.1434   -5.3625    0.0000 C   0  0  0  0  0  0  0  0  0  0  0  0
    2.8579   -4.9500    0.0000 C   0  0  1  0  0  0  0  0  0  0  0  0
    2.8579   -4.1250    0.0000 O   0  0  0  0  0  0  0  0  0  0  0  0
    3.5724   -5.3625    0.0000 C   0  0  0  0  0  0  0  0  0  0  0  0
    4.2868   -4.9500    0.0000 C   0  0  0  0  0  0  0  0  0  0  0  0
    4.2868   -4.1250    0.0000 O   0  0  0  0  0  0  0  0  0  0  0  0
    5.0013   -5.3625    0.0000 N   0  0  0  0  0  0  0  0  0  0  0  0
    5.0013   -6.1875    0.0000 C   0  0  0  0  0  0  0  0  0  0  0  0
    5.7158   -4.9500    0.0000 C   0  0  0  0  0  0  0  0  0  0  0  0
    6.4302   -5.3625    0.0000 C   0  0  0  0  0  0  0  0  0  0  0  0
    7.1447   -4.9500    0.0000 S   0  0  0  0  0  0  0  0  0  0  0  0
    7.8592   -5.3625    0.0000 C   0  0  0  0  0  0  0  0  0  0  0  0
    8.5737   -4.9500    0.0000 C   0  0  0  0  0  0  0  0  0  0  0  0
    9.2881   -5.3625    0.0000 C   0  0  0  0  0  0  0  0  0  0  0  0
    9.2881   -6.1875    0.0000 C   0  0  0  0  0  0  0  0  0  0  0  0
   10.0026   -6.6000    0.0000 C   0  0  0  0  0  0  0  0  0  0  0  0
    8.5737   -6.6000    0.0000 C   0  0  0  0  0  0  0  0  0  0  0  0
    7.8592   -6.1875    0.0000 C   0  0  0  0  0  0  0  0  0  0  0  0
    5.7158   -4.1250    0.0000 C   0  0  0  0  0  0  0  0  0  0  0  0
    5.3033   -3.4105    0.0000 C   0  0  0  0  0  0  0  0  0  0  0  0
    6.1283   -3.4105    0.0000 C   0  0  0  0  0  0  0  0  0  0  0  0
  1  2  1  0  0  0  0
  3  2  1  0  0  0  0
  3  4  1  1  0  0  0
  3  5  1  0  0  0  0
  5  6  1  0  0  0  0
  6  7  2  0  0  0  0
  6  8  1  0  0  0  0
  8  9  1  0  0  0  0
  8 10  1  0  0  0  0
 10 11  1  0  0  0  0
 11 12  1  0  0  0  0
 12 13  1  0  0  0  0
 13 14  2  0  0  0  0
 14 15  1  0  0  0  0
 15 16  2  0  0  0  0
 16 17  1  0  0  0  0
 16 18  1  0  0  0  0
 18 19  2  0  0  0  0
 13 19  1  0  0  0  0
 10 20  1  0  0  0  0
 20 21  1  0  0  0  0
 21 22  1  0  0  0  0
 20 22  1  0  0  0  0
M  END
> <ID>
CPD_332

$$$$
CPD_337
  Mrv1822 09091914012D          

 36 38  0  0  0  0            999 V2000
   -4.2868    4.1250    0.0000 C   0  0  0  0  0  0  0  0  0  0  0  0
   -4.2868    3.3000    0.0000 C   0  0  0  0  0  0  0  0  0  0  0  0
   -3.5724    2.8875    0.0000 O   0  0  0  0  0  0  0  0  0  0  0  0
   -3.5724    2.0625    0.0000 C   0  0  0  0  0  0  0  0  0  0  0  0
   -2.8579    1.6500    0.0000 C   0  0  0  0  0  0  0  0  0  0  0  0
   -2.8579    0.8250    0.0000 C   0  0  0  0  0  0  0  0  0  0  0  0
   -3.5724    0.4125    0.0000 C   0  0  0  0  0  0  0  0  0  0  0  0
   -3.5724   -0.4125    0.0000 N   0  0  0  0  0  0  0  0  0  0  0  0
   -4.2868   -0.8250    0.0000 S   0  0  0  0  0  0  0  0  0  0  0  0
   -4.6993   -0.1105    0.0000 O   0  0  0  0  0  0  0  0  0  0  0  0
   -3.8743   -1.5395    0.0000 O   0  0  0  0  0  0  0  0  0  0  0  0
   -5.0013   -1.2375    0.0000 C   0  0  0  0  0  0  0  0  0  0  0  0
   -5.0013   -2.0625    0.0000 C   0  0  0  0  0  0  0  0  0  0  0  0
   -4.2868   -2.4750    0.0000 N   0  0  0  0  0  0  0  0  0  0  0  0
   -4.2868   -3.3000    0.0000 C   0  0  0  0  0  0  0  0  0  0  0  0
   -5.0013   -3.7125    0.0000 O   0  0  0  0  0  0  0  0  0  0  0  0
   -3.5724   -3.7125    0.0000 C   0  0  0  0  0  0  0  0  0  0  0  0
   -2.8579   -3.3000    0.0000 C   0  0  0  0  0  0  0  0  0  0  0  0
   -2.8579   -2.4750    0.0000 C   0  0  0  0  0  0  0  0  0  0  0  0
   -2.1434   -2.0625    0.0000 C   0  0  0  0  0  0  0  0  0  0  0  0
   -1.4289   -2.4750    0.0000 C   0  0  0  0  0  0  0  0  0  0  0  0
   -0.7145   -2.0625    0.0000 O   0  0  0  0  0  0  0  0  0  0  0  0
   -0.0000   -2.4750    0.0000 C   0  0  0  0  0  0  0  0  0  0  0  0
    0.7145   -2.0625    0.0000 C   0  0  0  0  0  0  0  0  0  0  0  0
   -1.4289   -3.3000    0.0000 C   0  0  0  0  0  0  0  0  0  0  0  0
   -2.1434   -3.7125    0.0000 C   0  0  0  0  0  0  0  0  0  0  0  0
   -0.7145   -3.7125    0.0000 C   0  0  0  0  0  0  0  0  0  0  0  0
   -0.0000   -4.1250    0.0000 F   0  0  0  0  0  0  0  0  0  0  0  0
   -1.1270   -4.4270    0.0000 F   0  0  0  0  0  0  0  0  0  0  0  0
   -0.3020   -2.9980    0.0000 F   0  0  0  0  0  0  0  0  0  0  0  0
   -5.7158   -2.4750    0.0000 C   0  0  0  0  0  0  0  0  0  0  0  0
   -6.4302   -2.0625    0.0000 C   0  0  0  0  0  0  0  0  0  0  0  0
   -6.4302   -1.2375    0.0000 C   0  0  0  0  0  0  0  0  0  0  0  0
   -5.7158   -0.8250    0.0000 C   0  0  0  0  0  0  0  0  0  0  0  0
   -4.2868    0.8250    0.0000 C   0  0  0  0  0  0  0  0  0  0  0  0
   -4.2868    1.6500    0.0000 C   0  0  0  0  0  0  0  0  0  0  0  0
  1  2  1  0  0  0  0
  2  3  1  0  0  0  0
  3  4  1  0  0  0  0
  4  5  2  0  0  0  0
  5  6  1  0  0  0  0
  6  7  2  0  0  0  0
  7  8  1  0  0  0  0
  8  9  1  0  0  0  0
  9 10  2  0  0  0  0
  9 11  2  0  0  0  0
  9 12  1  0  0  0  0
 12 13  2  0  0  0  0
 13 14  1  0  0  0  0
 14 15  1  0  0  0  0
 15 16  2  0  0  0  0
 15 17  1  0  0  0  0
 17 18  1  0  0  0  0
 18 19  2  0  0  0  0
 19 20  1  0  0  0  0
 20 21  2  0  0  0  0
 21 22  1  0  0  0  0
 22 23  1  0  0  0  0
 23 24  1  0  0  0  0
 21 25  1  0  0  0  0
 25 26  2  0  0  0  0
 18 26  1  0  0  0  0
 25 27  1  0  0  0  0
 27 28  1  0  0  0  0
 27 29  1  0  0  0  0
 27 30  1  0  0  0  0
 13 31  1  0  0  0  0
 31 32  2  0  0  0  0
 32 33  1  0  0  0  0
 33 34  2  0  0  0  0
 12 34  1  0  0  0  0
  7 35  1  0  0  0  0
 35 36  2  0  0  0  0
  4 36  1  0  0  0  0
M  END
> <ID>
CPD_337

$$$$
CPD_342
  Mrv1822 09091914012D          

 30 32  0  0  0  0            999 V2000
    3.5724   -1.2375    0.0000 C   0  0  0  0  0  0  0  0  0  0  0  0
    3.5724   -2.0625    0.0000 C   0  0  0  0  0  0  0  0  0  0  0  0
    4.2868   -2.4750    0.0000 O   0  0  0  0  0  0  0  0  0  0  0  0
    4.2868   -3.3000    0.0000 C   0  0  0  0  0  0  0  0  0  0  0  0
    5.0013   -3.7125    0.0000 C   0  0  0  0  0  0  0  0  0  0  0  0
    5.0013   -4.5375    0.0000 C   0  0  0  0  0  0  0  0  0  0  0  0
    4.2868   -4.9500    0.0000 C   0  0  0  0  0  0  0  0  0  0  0  0
    4.2868   -5.7750    0.0000 N   0  0  0  0  0  0  0  0  0  0  0  0
    3.5724   -6.1875    0.0000 S   0  0  0  0  0  0  0  0  0  0  0  0
    3.1599   -5.4730    0.0000 O   0  0  0  0  0  0  0  0  0  0  0  0
    3.9849   -6.9020    0.0000 O   0  0  0  0  0  0  0  0  0  0  0  0
    2.8579   -6.6000    0.0000 C   0  0  0  0  0  0  0  0  0  0  0  0
    2.8579   -7.4250    0.0000 C   0  0  0  0  0  0  0  0  0  0  0  0
    3.5724   -7.8375    0.0000 N   0  0  0  0  0  0  0  0  0  0  0  0
    3.5724   -8.6625    0.0000 C   0  0  0  0  0  0  0  0  0  0  0  0
    4.2868   -9.0750    0.0000 O   0  0  0  0  0  0  0  0  0  0  0  0
    2.8579   -9.0750    0.0000 C   0  0  0  0  0  0  0  0  0  0  0  0
    2.8579   -9.9000    0.0000 C   0  0  0  0  0  0  0  0  0  0  0  0
    3.5724  -10.3125    0.0000 Cl  0  0  0  0  0  0  0  0  0  0  0  0
    2.1434  -10.3125    0.0000 C   0  0  0  0  0  0  0  0  0  0  0  0
    1.4289   -9.9000    0.0000 C   0  0  0  0  0  0  0  0  0  0  0  0
    0.7145  -10.3125    0.0000 Cl  0  0  0  0  0  0  0  0  0  0  0  0
    1.4289   -9.0750    0.0000 C   0  0  0  0  0  0  0  0  0  0  0  0
    2.1434   -8.6625    0.0000 C   0  0  0  0  0  0  0  0  0  0  0  0
    2.1434   -7.8375    0.0000 C   0  0  0  0  0  0  0  0  0  0  0  0
    1.4289   -7.4250    0.0000 C   0  0  0  0  0  0  0  0  0  0  0  0
    1.4289   -6.6000    0.0000 C   0  0  0  0  0  0  0  0  0  0  0  0
    2.1434   -6.1875    0.0000 C   0  0  0  0  0  0  0  0  0  0  0  0
    3.5724   -4.5375    0.0000 C   0  0  0  0  0  0  0  0  0  0  0  0
    3.5724   -3.7125    0.0000 C   0  0  0  0  0  0  0  0  0  0  0  0
  1  2  1  0  0  0  0
  2  3  1  0  0  0  0
  3  4  1  0  0  0  0
  4  5  2  0  0  0  0
  5  6  1  0  0  0  0
  6  7  2  0  0  0  0
  7  8  1  0  0  0  0
  8  9  1  0  0  0  0
  9 10  2  0  0  0  0
  9 11  2  0  0  0  0
  9 12  1  0  0  0  0
 12 13  2  0  0  0  0
 13 14  1  0  0  0  0
 14 15  1  0  0  0  0
 15 16  2  0  0  0  0
 15 17  1  0  0  0  0
 17 18  2  0  0  0  0
 18 19  1  0  0  0  0
 18 20  1  0  0  0  0
 20 21  2  0  0  0  0
 21 22  1  0  0  0  0
 21 23  1  0  0  0  0
 23 24  2  0  0  0  0
 17 24  1  0  0  0  0
 13 25  1  0  0  0  0
 25 26  2  0  0  0  0
 26 27  1  0  0  0  0
 27 28  2  0  0  0  0
 12 28  1  0  0  0  0
  7 29  1  0  0  0  0
 29 30  2  0  0  0  0
  4 30  1  0  0  0  0
M  END
> <ID>
CPD_342

$$$$
CPD_347
  Mrv1822 09091914012D          

 30 32  0  0  0  0            999 V2000
   -1.4289    0.0000    0.0000 C   0  0  0  0  0  0  0  0  0  0  0  0
   -1.4289   -0.8250    0.0000 C   0  0  0  0  0  0  0  0  0  0  0  0
   -0.7145   -1.2375    0.0000 O   0  0  0  0  0  0  0  0  0  0  0  0
   -0.7145   -2.0625    0.0000 C   0  0  0  0  0  0  0  0  0  0  0  0
    0.0000   -2.4750    0.0000 C   0  0  0  0  0  0  0  0  0  0  0  0
    0.0000   -3.3000    0.0000 C   0  0  0  0  0  0  0  0  0  0  0  0
   -0.7145   -3.7125    0.0000 C   0  0  0  0  0  0  0  0  0  0  0  0
   -1.4289   -3.3000    0.0000 C   0  0  0  0  0  0  0  0  0  0  0  0
   -1.4289   -2.4750    0.0000 C   0  0  0  0  0  0  0  0  0  0  0  0
   -0.7145   -4.5375    0.0000 N   0  0  0  0  0  0  0  0  0  0  0  0
   -1.4289   -4.9500    0.0000 C   0  0  0  0  0  0  0  0  0  0  0  0
   -1.4289   -5.7750    0.0000 O   0  0  0  0  0  0  0  0  0  0  0  0
   -2.1434   -4.5375    0.0000 C   0  0  0  0  0  0  0  0  0  0  0  0
   -2.8579   -4.9500    0.0000 C   0  0  0  0  0  0  0  0  0  0  0  0
   -2.8579   -5.7750    0.0000 C   0  0  0  0  0  0  0  0  0  0  0  0
   -3.5724   -4.5375    0.0000 C   0  0  0  0  0  0  0  0  0  0  0  0
   -3.5724   -3.7125    0.0000 C   0  0  0  0  0  0  0  0  0  0  0  0
   -4.2868   -3.3000    0.0000 C   0  0  0  0  0  0  0  0  0  0  0  0
   -2.8579   -3.3000    0.0000 C   0  0  0  0  0  0  0  0  0  0  0  0
   -2.1434   -3.7125    0.0000 C   0  0  0  0  0  0  0  0  0  0  0  0
   -0.0000   -4.9500    0.0000 S   0  0  0  0  0  0  0  0  0  0  0  0
   -0.4125   -5.6645    0.0000 O   0  0  0  0  0  0  0  0  0  0  0  0
    0.4125   -4.2355    0.0000 O   0  0  0  0  0  0  0  0  0  0  0  0
    0.7145   -5.3625    0.0000 C   0  0  0  0  0  0  0  0  0  0  0  0
    1.4289   -4.9500    0.0000 C   0  0  0  0  0  0  0  0  0  0  0  0
    1.4289   -4.1250    0.0000 N   0  0  0  0  0  0  0  0  0  0  0  0
    2.1434   -5.3625    0.0000 C   0  0  0  0  0  0  0  0  0  0  0  0
    2.1434   -6.1875    0.0000 C   0  0  0  0  0  0  0  0  0  0  0  0
    1.4289   -6.6000    0.0000 C   0  0  0  0  0  0  0  0  0  0  0  0
    0.7145   -6.1875    0.0000 C   0  0  0  0  0  0  0  0  0  0  0  0
  1  2  1  0  0  0  0
  2  3  1  0  0  0  0
  3  4  1  0  0  0  0
  4  5  2  0  0  0  0
  5  6  1  0  0  0  0
  6  7  2  0  0  0  0
  7  8  1  0  0  0  0
  8  9  2  0  0  0  0
  4  9  1  0  0  0  0
  7 10  1  0  0  0  0
 10 11  1  0  0  0  0
 11 12  2  0  0  0  0
 11 13  1  0  0  0  0
 13 14  2  0  0  0  0
 14 15  1  0  0  0  0
 14 16  1  0  0  0  0
 16 17  2  0  0  0  0
 17 18  1  0  0  0  0
 17 19  1  0  0  0  0
 19 20  2  0  0  0  0
 13 20  1  0  0  0  0
 10 21  1  0  0  0  0
 21 22  2  0  0  0  0
 21 23  2  0  0  0  0
 21 24  1  0  0  0  0
 24 25  2  0  0  0  0
 25 26  1  0  0  0  0
 25 27  1  0  0  0  0
 27 28  2  0  0  0  0
 28 29  1  0  0  0  0
 29 30  2  0  0  0  0
 24 30  1  0  0  0  0
M  END
> <ID>
CPD_347

$$$$
CPD_352
  Mrv1822 09091914012D          

 27 30  0  0  1  0            999 V2000
    0.3822    4.1831    0.0000 N   0  0  0  0  0  0  0  0  0  0  0  0
   -0.4383    4.0969    0.0000 C   0  0  0  0  0  0  0  0  0  0  0  0
   -0.7739    3.3432    0.0000 C   0  0  0  0  0  0  0  0  0  0  0  0
   -0.2890    2.6757    0.0000 N   0  0  0  0  0  0  0  0  0  0  0  0
    0.5315    2.7620    0.0000 C   0  0  0  0  0  0  0  0  0  0  0  0
    0.8671    3.5157    0.0000 O   0  0  0  0  0  0  0  0  0  0  0  0
    1.0164    2.0945    0.0000 C   0  0  1  0  0  0  0  0  0  0  0  0
    1.8414    2.0945    0.0000 C   0  0  0  0  0  0  0  0  0  0  0  0
    2.0964    1.3099    0.0000 S   0  0  0  0  0  0  0  0  0  0  0  0
    1.4289    0.8250    0.0000 C   0  0  0  0  0  0  0  0  0  0  0  0
    0.7615    1.3099    0.0000 N   0  0  0  0  0  0  0  0  0  0  0  0
    1.4289    0.0000    0.0000 C   0  0  0  0  0  0  0  0  0  0  0  0
    2.1434   -0.4125    0.0000 C   0  0  0  0  0  0  0  0  0  0  0  0
    2.8579    0.0000    0.0000 C   0  0  0  0  0  0  0  0  0  0  0  0
    3.5724   -0.4125    0.0000 C   0  0  0  0  0  0  0  0  0  0  0  0
    3.5724   -1.2375    0.0000 C   0  0  0  0  0  0  0  0  0  0  0  0
    2.8579   -1.6500    0.0000 C   0  0  0  0  0  0  0  0  0  0  0  0
    2.1434   -1.2375    0.0000 C   0  0  0  0  0  0  0  0  0  0  0  0
    1.4289   -1.6500    0.0000 C   0  0  0  0  0  0  0  0  0  0  0  0
    0.7145   -1.2375    0.0000 C   0  0  0  0  0  0  0  0  0  0  0  0
    0.7145   -0.4125    0.0000 C   0  0  0  0  0  0  0  0  0  0  0  0
   -1.5944    3.2570    0.0000 C   0  0  0  0  0  0  0  0  0  0  0  0
   -2.0793    3.9244    0.0000 C   0  0  0  0  0  0  0  0  0  0  0  0
   -2.8998    3.8382    0.0000 C   0  0  0  0  0  0  0  0  0  0  0  0
   -3.2353    3.0845    0.0000 O   0  0  0  0  0  0  0  0  0  0  0  0
   -1.7437    4.6781    0.0000 C   0  0  0  0  0  0  0  0  0  0  0  0
   -0.9232    4.7643    0.0000 C   0  0  0  0  0  0  0  0  0  0  0  0
  1  2  1  0  0  0  0
  2  3  2  0  0  0  0
  3  4  1  0  0  0  0
  4  5  1  0  0  0  0
  5  6  2  0  0  0  0
  7  5  1  1  0  0  0
  7  8  1  0  0  0  0
  8  9  1  0  0  0  0
  9 10  1  0  0  0  0
 10 11  1  0  0  0  0
  7 11  1  0  0  0  0
 10 12  1  0  0  0  0
 12 13  2  0  0  0  0
 13 14  1  0  0  0  0
 14 15  2  0  0  0  0
 15 16  1  0  0  0  0
 16 17  2  0  0  0  0
 17 18  1  0  0  0  0
 13 18  1  0  0  0  0
 18 19  2  0  0  0  0
 19 20  1  0  0  0  0
 20 21  2  0  0  0  0
 12 21  1  0  0  0  0
  3 22  1  0  0  0  0
 22 23  2  0  0  0  0
 23 24  1  0  0  0  0
 24 25  1  0  0  0  0
 23 26  1  0  0  0  0
 26 27  2  0  0  0  0
  2 27  1  0  0  0  0
M  END
> <ID>
CPD_352

$$$$
CPD_357
  Mrv1822 09091914012D          

 35 38  0  0  0  0            999 V2000
    5.7158   -4.1250    0.0000 C   0  0  0  0  0  0  0  0  0  0  0  0
    5.7158   -4.9500    0.0000 N   0  0  0  0  0  0  0  0  0  0  0  0
    6.4302   -5.3625    0.0000 C   0  0  0  0  0  0  0  0  0  0  0  0
    6.4302   -6.1875    0.0000 C   0  0  0  0  0  0  0  0  0  0  0  0
    5.7158   -6.6000    0.0000 N   0  0  0  0  0  0  0  0  0  0  0  0
    5.0013   -6.1875    0.0000 C   0  0  0  0  0  0  0  0  0  0  0  0
    5.0013   -5.3625    0.0000 C   0  0  0  0  0  0  0  0  0  0  0  0
    5.7158   -7.4250    0.0000 C   0  0  0  0  0  0  0  0  0  0  0  0
    6.4302   -7.8375    0.0000 N   0  0  0  0  0  0  0  0  0  0  0  0
    6.4302   -8.6625    0.0000 C   0  0  0  0  0  0  0  0  0  0  0  0
    5.7158   -9.0750    0.0000 C   0  0  0  0  0  0  0  0  0  0  0  0
    5.0013   -8.6625    0.0000 C   0  0  0  0  0  0  0  0  0  0  0  0
    5.0013   -7.8375    0.0000 C   0  0  0  0  0  0  0  0  0  0  0  0
    4.2868   -7.4250    0.0000 C   0  0  0  0  0  0  0  0  0  0  0  0
    3.5724   -7.0125    0.0000 F   0  0  0  0  0  0  0  0  0  0  0  0
    4.6993   -6.7105    0.0000 F   0  0  0  0  0  0  0  0  0  0  0  0
    3.8743   -8.1395    0.0000 F   0  0  0  0  0  0  0  0  0  0  0  0
    5.7158   -9.9000    0.0000 C   0  0  0  0  0  0  0  0  0  0  0  0
    6.4302  -10.3125    0.0000 C   0  0  0  0  0  0  0  0  0  0  0  0
    6.4302  -11.1375    0.0000 C   0  0  0  0  0  0  0  0  0  0  0  0
    5.7158  -11.5500    0.0000 C   0  0  0  0  0  0  0  0  0  0  0  0
    5.0013  -11.1375    0.0000 C   0  0  0  0  0  0  0  0  0  0  0  0
    5.0013  -10.3125    0.0000 C   0  0  0  0  0  0  0  0  0  0  0  0
    4.2868  -11.5500    0.0000 C   0  0  0  0  0  0  0  0  0  0  0  0
    3.5724  -11.1375    0.0000 O   0  0  0  0  0  0  0  0  0  0  0  0
    4.2868  -12.3750    0.0000 N   0  0  0  0  0  0  0  0  0  0  0  0
    3.5724  -12.7875    0.0000 C   0  0  0  0  0  0  0  0  0  0  0  0
    3.5724  -13.6125    0.0000 C   0  0  0  0  0  0  0  0  0  0  0  0
    4.2868  -14.0250    0.0000 N   0  0  0  0  0  0  0  0  0  0  0  0
    2.8579  -14.0250    0.0000 C   0  0  0  0  0  0  0  0  0  0  0  0
    2.1434  -13.6125    0.0000 C   0  0  0  0  0  0  0  0  0  0  0  0
    1.4289  -14.0250    0.0000 C   0  0  0  0  0  0  0  0  0  0  0  0
    1.4289  -14.8500    0.0000 O   0  0  0  0  0  0  0  0  0  0  0  0
    2.1434  -12.7875    0.0000 C   0  0  0  0  0  0  0  0  0  0  0  0
    2.8579  -12.3750    0.0000 C   0  0  0  0  0  0  0  0  0  0  0  0
  1  2  1  0  0  0  0
  2  3  1  0  0  0  0
  3  4  1  0  0  0  0
  4  5  1  0  0  0  0
  5  6  1  0  0  0  0
  6  7  1  0  0  0  0
  2  7  1  0  0  0  0
  5  8  1  0  0  0  0
  8  9  2  0  0  0  0
  9 10  1  0  0  0  0
 10 11  2  0  0  0  0
 11 12  1  0  0  0  0
 12 13  2  0  0  0  0
  8 13  1  0  0  0  0
 13 14  1  0  0  0  0
 14 15  1  0  0  0  0
 14 16  1  0  0  0  0
 14 17  1  0  0  0  0
 11 18  1  0  0  0  0
 18 19  2  0  0  0  0
 19 20  1  0  0  0  0
 20 21  2  0  0  0  0
 21 22  1  0  0  0  0
 22 23  2  0  0  0  0
 18 23  1  0  0  0  0
 22 24  1  0  0  0  0
 24 25  2  0  0  0  0
 24 26  1  0  0  0  0
 26 27  1  0  0  0  0
 27 28  2  0  0  0  0
 28 29  1  0  0  0  0
 28 30  1  0  0  0  0
 30 31  2  0  0  0  0
 31 32  1  0  0  0  0
 32 33  1  0  0  0  0
 31 34  1  0  0  0  0
 34 35  2  0  0  0  0
 27 35  1  0  0  0  0
M  END
> <ID>
CPD_357

$$$$
CPD_362
  Mrv1822 09091914012D          

 33 36  0  0  0  0            999 V2000
    3.5724   -5.3625    0.0000 N   0  0  0  0  0  0  0  0  0  0  0  0
    3.5724   -6.1875    0.0000 C   0  0  0  0  0  0  0  0  0  0  0  0
    4.2868   -6.6000    0.0000 C   0  0  0  0  0  0  0  0  0  0  0  0
    5.0013   -6.1875    0.0000 N   0  0  0  0  0  0  0  0  0  0  0  0
    5.7158   -6.6000    0.0000 C   0  0  0  0  0  0  0  0  0  0  0  0
    5.7158   -7.4250    0.0000 O   0  0  0  0  0  0  0  0  0  0  0  0
    6.4302   -6.1875    0.0000 C   0  0  0  0  0  0  0  0  0  0  0  0
    6.4302   -5.3625    0.0000 C   0  0  0  0  0  0  0  0  0  0  0  0
    7.1447   -4.9500    0.0000 C   0  0  0  0  0  0  0  0  0  0  0  0
    7.8592   -5.3625    0.0000 C   0  0  0  0  0  0  0  0  0  0  0  0
    7.8592   -6.1875    0.0000 N   0  0  0  0  0  0  0  0  0  0  0  0
    7.1447   -6.6000    0.0000 C   0  0  0  0  0  0  0  0  0  0  0  0
    8.5737   -6.6000    0.0000 C   0  0  0  0  0  0  0  0  0  0  0  0
    9.2881   -6.1875    0.0000 O   0  0  0  0  0  0  0  0  0  0  0  0
    8.5737   -7.4250    0.0000 C   0  0  0  0  0  0  0  0  0  0  0  0
    9.2881   -7.8375    0.0000 C   0  0  0  0  0  0  0  0  0  0  0  0
   10.0026   -7.4250    0.0000 O   0  0  0  0  0  0  0  0  0  0  0  0
   10.7171   -7.8375    0.0000 C   0  0  0  0  0  0  0  0  0  0  0  0
   11.4315   -7.4250    0.0000 C   0  0  0  0  0  0  0  0  0  0  0  0
   12.1460   -7.8375    0.0000 C   0  0  0  0  0  0  0  0  0  0  0  0
   12.1460   -8.6625    0.0000 C   0  0  0  0  0  0  0  0  0  0  0  0
   11.4315   -9.0750    0.0000 C   0  0  0  0  0  0  0  0  0  0  0  0
   10.7171   -8.6625    0.0000 C   0  0  0  0  0  0  0  0  0  0  0  0
    9.2881   -8.6625    0.0000 C   0  0  0  0  0  0  0  0  0  0  0  0
    8.5737   -9.0750    0.0000 C   0  0  0  0  0  0  0  0  0  0  0  0
    7.8592   -8.6625    0.0000 C   0  0  0  0  0  0  0  0  0  0  0  0
    7.8592   -7.8375    0.0000 C   0  0  0  0  0  0  0  0  0  0  0  0
    4.2868   -7.4250    0.0000 C   0  0  0  0  0  0  0  0  0  0  0  0
    3.5724   -7.8375    0.0000 C   0  0  0  0  0  0  0  0  0  0  0  0
    2.8579   -7.4250    0.0000 C   0  0  0  0  0  0  0  0  0  0  0  0
    2.1434   -7.8375    0.0000 C   0  0  0  0  0  0  0  0  0  0  0  0
    2.1434   -8.6625    0.0000 O   0  0  0  0  0  0  0  0  0  0  0  0
    2.8579   -6.6000    0.0000 C   0  0  0  0  0  0  0  0  0  0  0  0
  1  2  1  0  0  0  0
  2  3  2  0  0  0  0
  3  4  1  0  0  0  0
  4  5  1  0  0  0  0
  5  6  2  0  0  0  0
  5  7  1  0  0  0  0
  7  8  1  0  0  0  0
  8  9  1  0  0  0  0
  9 10  1  0  0  0  0
 10 11  1  0  0  0  0
 11 12  1  0  0  0  0
  7 12  1  0  0  0  0
 11 13  1  0  0  0  0
 13 14  2  0  0  0  0
 13 15  1  0  0  0  0
 15 16  2  0  0  0  0
 16 17  1  0  0  0  0
 17 18  1  0  0  0  0
 18 19  2  0  0  0  0
 19 20  1  0  0  0  0
 20 21  2  0  0  0  0
 21 22  1  0  0  0  0
 22 23  2  0  0  0  0
 18 23  1  0  0  0  0
 16 24  1  0  0  0  0
 24 25  2  0  0  0  0
 25 26  1  0  0  0  0
 26 27  2  0  0  0  0
 15 27  1  0  0  0  0
  3 28  1  0  0  0  0
 28 29  2  0  0  0  0
 29 30  1  0  0  0  0
 30 31  1  0  0  0  0
 31 32  1  0  0  0  0
 30 33  2  0  0  0  0
  2 33  1  0  0  0  0
M  END
> <ID>
CPD_362

$$$$
CPD_367
  Mrv1822 09091914012D          

 34 37  0  0  0  0            999 V2000
   -5.1212   -0.6979    0.0000 C   0  0  0  0  0  0  0  0  0  0  0  0
   -4.2962   -0.6979    0.0000 O   0  0  0  0  0  0  0  0  0  0  0  0
   -3.8837    0.0165    0.0000 C   0  0  0  0  0  0  0  0  0  0  0  0
   -4.2962    0.7310    0.0000 O   0  0  0  0  0  0  0  0  0  0  0  0
   -3.0587    0.0165    0.0000 C   0  0  0  0  0  0  0  0  0  0  0  0
   -2.6462    0.7310    0.0000 C   0  0  0  0  0  0  0  0  0  0  0  0
   -1.8212    0.7310    0.0000 C   0  0  0  0  0  0  0  0  0  0  0  0
   -1.4087    1.4455    0.0000 N   0  0  0  0  0  0  0  0  0  0  0  0
   -1.4087    0.0165    0.0000 C   0  0  0  0  0  0  0  0  0  0  0  0
   -1.8212   -0.6979    0.0000 C   0  0  0  0  0  0  0  0  0  0  0  0
   -2.6462   -0.6979    0.0000 C   0  0  0  0  0  0  0  0  0  0  0  0
   -0.5837    0.0165    0.0000 N   0  0  0  0  0  0  0  0  0  0  0  0
   -0.1712    0.7310    0.0000 C   0  0  0  0  0  0  0  0  0  0  0  0
   -0.5837    1.4455    0.0000 C   0  0  0  0  0  0  0  0  0  0  0  0
   -0.1712    2.1599    0.0000 C   0  0  0  0  0  0  0  0  0  0  0  0
    0.6538    2.1599    0.0000 C   0  0  0  0  0  0  0  0  0  0  0  0
    1.0663    1.4455    0.0000 C   0  0  0  0  0  0  0  0  0  0  0  0
    0.6538    0.7310    0.0000 C   0  0  0  0  0  0  0  0  0  0  0  0
   -0.1712   -0.6979    0.0000 C   0  0  0  0  0  0  0  0  0  0  0  0
   -0.5837   -1.4124    0.0000 O   0  0  0  0  0  0  0  0  0  0  0  0
    0.6538   -0.6979    0.0000 C   0  0  0  0  0  0  0  0  0  0  0  0
    1.1387   -0.0305    0.0000 N   0  0  0  0  0  0  0  0  0  0  0  0
    1.9233   -0.2854    0.0000 N   0  0  0  0  0  0  0  0  0  0  0  0
    2.6378    0.1271    0.0000 C   0  0  0  0  0  0  0  0  0  0  0  0
    3.3523   -0.2854    0.0000 C   0  0  0  0  0  0  0  0  0  0  0  0
    3.3523   -1.1104    0.0000 C   0  0  0  0  0  0  0  0  0  0  0  0
    4.0668   -1.5229    0.0000 C   0  0  0  0  0  0  0  0  0  0  0  0
    2.6378   -1.5229    0.0000 N   0  0  0  0  0  0  0  0  0  0  0  0
    1.9233   -1.1104    0.0000 C   0  0  0  0  0  0  0  0  0  0  0  0
    1.1387   -1.3654    0.0000 C   0  0  0  0  0  0  0  0  0  0  0  0
    2.6378    0.9521    0.0000 C   0  0  0  0  0  0  0  0  0  0  0  0
    2.6378    1.7771    0.0000 F   0  0  0  0  0  0  0  0  0  0  0  0
    3.4628    0.9521    0.0000 F   0  0  0  0  0  0  0  0  0  0  0  0
    1.8128    0.9521    0.0000 F   0  0  0  0  0  0  0  0  0  0  0  0
  1  2  1  0  0  0  0
  2  3  1  0  0  0  0
  3  4  2  0  0  0  0
  3  5  1  0  0  0  0
  5  6  2  0  0  0  0
  6  7  1  0  0  0  0
  7  8  1  0  0  0  0
  7  9  2  0  0  0  0
  9 10  1  0  0  0  0
 10 11  2  0  0  0  0
  5 11  1  0  0  0  0
  9 12  1  0  0  0  0
 12 13  1  0  0  0  0
 13 14  1  0  0  0  0
 14 15  1  0  0  0  0
 15 16  1  0  0  0  0
 16 17  1  0  0  0  0
 17 18  1  0  0  0  0
 13 18  1  0  0  0  0
 12 19  1  0  0  0  0
 19 20  2  0  0  0  0
 19 21  1  0  0  0  0
 21 22  2  0  0  0  0
 22 23  1  0  0  0  0
 23 24  1  0  0  0  0
 24 25  1  0  0  0  0
 25 26  1  0  0  0  0
 26 27  1  0  0  0  0
 26 28  1  0  0  0  0
 28 29  1  0  0  0  0
 23 29  1  0  0  0  0
 29 30  2  0  0  0  0
 21 30  1  0  0  0  0
 24 31  1  0  0  0  0
 31 32  1  0  0  0  0
 31 33  1  0  0  0  0
 31 34  1  0  0  0  0
M  END
> <ID>
CPD_367

$$$$
CPD_372
  Mrv1822 09091914012D          

 35 39  0  0  0  0            999 V2000
    9.9024    0.4125    0.0000 C   0  0  0  0  0  0  0  0  0  0  0  0
    9.0774    0.4125    0.0000 O   0  0  0  0  0  0  0  0  0  0  0  0
    8.6649   -0.3020    0.0000 C   0  0  0  0  0  0  0  0  0  0  0  0
    9.0774   -1.0164    0.0000 O   0  0  0  0  0  0  0  0  0  0  0  0
    7.8399   -0.3020    0.0000 C   0  0  0  0  0  0  0  0  0  0  0  0
    7.4274   -1.0164    0.0000 C   0  0  0  0  0  0  0  0  0  0  0  0
    6.6024   -1.0164    0.0000 C   0  0  0  0  0  0  0  0  0  0  0  0
    6.1899   -1.7309    0.0000 N   0  0  0  0  0  0  0  0  0  0  0  0
    6.1899   -0.3020    0.0000 C   0  0  0  0  0  0  0  0  0  0  0  0
    6.6024    0.4125    0.0000 C   0  0  0  0  0  0  0  0  0  0  0  0
    7.4274    0.4125    0.0000 C   0  0  0  0  0  0  0  0  0  0  0  0
    5.3649   -0.3020    0.0000 N   0  0  0  0  0  0  0  0  0  0  0  0
    4.9524   -1.0164    0.0000 C   0  0  0  0  0  0  0  0  0  0  0  0
    5.3649   -1.7309    0.0000 C   0  0  0  0  0  0  0  0  0  0  0  0
    4.9524   -2.4454    0.0000 C   0  0  0  0  0  0  0  0  0  0  0  0
    4.1274   -2.4454    0.0000 C   0  0  0  0  0  0  0  0  0  0  0  0
    3.7149   -1.7309    0.0000 C   0  0  0  0  0  0  0  0  0  0  0  0
    4.1274   -1.0164    0.0000 C   0  0  0  0  0  0  0  0  0  0  0  0
    4.9524    0.4125    0.0000 C   0  0  0  0  0  0  0  0  0  0  0  0
    5.3649    1.1270    0.0000 O   0  0  0  0  0  0  0  0  0  0  0  0
    4.1274    0.4125    0.0000 C   0  0  0  0  0  0  0  0  0  0  0  0
    3.6425    1.0799    0.0000 C   0  0  0  0  0  0  0  0  0  0  0  0
    2.8579    0.8250    0.0000 C   0  0  0  0  0  0  0  0  0  0  0  0
    2.8579    0.0000    0.0000 C   0  0  0  0  0  0  0  0  0  0  0  0
    3.6425   -0.2549    0.0000 S   0  0  0  0  0  0  0  0  0  0  0  0
    2.1434   -0.4125    0.0000 N   0  0  0  0  0  0  0  0  0  0  0  0
    1.4289   -0.0000    0.0000 C   0  0  0  0  0  0  0  0  0  0  0  0
    0.7145   -0.4125    0.0000 C   0  0  0  0  0  0  0  0  0  0  0  0
   -0.0000    0.0000    0.0000 C   0  0  0  0  0  0  0  0  0  0  0  0
    0.0000    0.8250    0.0000 C   0  0  0  0  0  0  0  0  0  0  0  0
   -0.7145    1.2375    0.0000 O   0  0  0  0  0  0  0  0  0  0  0  0
   -1.4289    0.8250    0.0000 C   0  0  0  0  0  0  0  0  0  0  0  0
    0.7145    1.2375    0.0000 C   0  0  0  0  0  0  0  0  0  0  0  0
    1.4289    0.8250    0.0000 C   0  0  0  0  0  0  0  0  0  0  0  0
    2.1434    1.2375    0.0000 C   0  0  0  0  0  0  0  0  0  0  0  0
  1  2  1  0  0  0  0
  2  3  1  0  0  0  0
  3  4  2  0  0  0  0
  3  5  1  0  0  0  0
  5  6  2  0  0  0  0
  6  7  1  0  0  0  0
  7  8  1  0  0  0  0
  7  9  2  0  0  0  0
  9 10  1  0  0  0  0
 10 11  2  0  0  0  0
  5 11  1  0  0  0  0
  9 12  1  0  0  0  0
 12 13  1  0  0  0  0
 13 14  1  0  0  0  0
 14 15  1  0  0  0  0
 15 16  1  0  0  0  0
 16 17  1  0  0  0  0
 17 18  1  0  0  0  0
 13 18  1  0  0  0  0
 12 19  1  0  0  0  0
 19 20  2  0  0  0  0
 19 21  1  0  0  0  0
 21 22  2  0  0  0  0
 22 23  1  0  0  0  0
 23 24  2  0  0  0  0
 24 25  1  0  0  0  0
 21 25  1  0  0  0  0
 24 26  1  0  0  0  0
 26 27  2  0  0  0  0
 27 28  1  0  0  0  0
 28 29  2  0  0  0  0
 29 30  1  0  0  0  0
 30 31  1  0  0  0  0
 31 32  1  0  0  0  0
 30 33  2  0  0  0  0
 33 34  1  0  0  0  0
 27 34  1  0  0  0  0
 34 35  2  0  0  0  0
 23 35  1  0  0  0  0
M  END
> <ID>
CPD_372

$$$$
CPD_377
  Mrv1822 09091914012D          

 31 33  0  0  0  0            999 V2000
    2.8579   -0.8250    0.0000 C   0  0  0  0  0  0  0  0  0  0  0  0
    2.8579   -1.6500    0.0000 C   0  0  0  0  0  0  0  0  0  0  0  0
    3.5724   -2.0625    0.0000 C   0  0  0  0  0  0  0  0  0  0  0  0
    3.5724   -2.8875    0.0000 C   0  0  0  0  0  0  0  0  0  0  0  0
    2.8579   -3.3000    0.0000 C   0  0  0  0  0  0  0  0  0  0  0  0
    2.1434   -2.8875    0.0000 C   0  0  0  0  0  0  0  0  0  0  0  0
    2.1434   -2.0625    0.0000 C   0  0  0  0  0  0  0  0  0  0  0  0
    2.8579   -4.1250    0.0000 S   0  0  0  0  0  0  0  0  0  0  0  0
    2.0329   -4.1250    0.0000 O   0  0  0  0  0  0  0  0  0  0  0  0
    3.6829   -4.1250    0.0000 O   0  0  0  0  0  0  0  0  0  0  0  0
    2.8579   -4.9500    0.0000 N   0  0  0  0  0  0  0  0  0  0  0  0
    3.5724   -5.3625    0.0000 C   0  0  0  0  0  0  0  0  0  0  0  0
    4.2868   -4.9500    0.0000 O   0  0  0  0  0  0  0  0  0  0  0  0
    3.5724   -6.1875    0.0000 C   0  0  0  0  0  0  0  0  0  0  0  0
    2.8579   -6.6000    0.0000 C   0  0  0  0  0  0  0  0  0  0  0  0
    2.8579   -7.4250    0.0000 N   0  0  0  0  0  0  0  0  0  0  0  0
    3.5724   -7.8375    0.0000 C   0  0  0  0  0  0  0  0  0  0  0  0
    4.2868   -7.4250    0.0000 C   0  0  0  0  0  0  0  0  0  0  0  0
    5.0013   -7.8375    0.0000 Br  0  0  0  0  0  0  0  0  0  0  0  0
    4.2868   -6.6000    0.0000 C   0  0  0  0  0  0  0  0  0  0  0  0
    5.0013   -6.1875    0.0000 N   0  0  0  0  0  0  0  0  0  0  0  0
    2.1434   -5.3625    0.0000 C   0  0  0  0  0  0  0  0  0  0  0  0
    2.1434   -6.1875    0.0000 C   0  0  0  0  0  0  0  0  0  0  0  0
    1.4289   -6.6000    0.0000 C   0  0  0  0  0  0  0  0  0  0  0  0
    0.7145   -6.1875    0.0000 C   0  0  0  0  0  0  0  0  0  0  0  0
   -0.0000   -6.6000    0.0000 Cl  0  0  0  0  0  0  0  0  0  0  0  0
    0.7145   -5.3625    0.0000 C   0  0  0  0  0  0  0  0  0  0  0  0
    1.4289   -4.9500    0.0000 C   0  0  0  0  0  0  0  0  0  0  0  0
   -0.0000   -4.9500    0.0000 C   0  0  0  0  0  0  0  0  0  0  0  0
    0.0000   -4.1250    0.0000 O   0  0  0  0  0  0  0  0  0  0  0  0
   -0.7145   -5.3625    0.0000 O   0  0  0  0  0  0  0  0  0  0  0  0
  1  2  1  0  0  0  0
  2  3  2  0  0  0  0
  3  4  1  0  0  0  0
  4  5  2  0  0  0  0
  5  6  1  0  0  0  0
  6  7  2  0  0  0  0
  2  7  1  0  0  0  0
  5  8  1  0  0  0  0
  8  9  2  0  0  0  0
  8 10  2  0  0  0  0
  8 11  1  0  0  0  0
 11 12  1  0  0  0  0
 12 13  2  0  0  0  0
 12 14  1  0  0  0  0
 14 15  2  0  0  0  0
 15 16  1  0  0  0  0
 16 17  2  0  0  0  0
 17 18  1  0  0  0  0
 18 19  1  0  0  0  0
 18 20  2  0  0  0  0
 14 20  1  0  0  0  0
 20 21  1  0  0  0  0
 11 22  1  0  0  0  0
 22 23  2  0  0  0  0
 23 24  1  0  0  0  0
 24 25  2  0  0  0  0
 25 26  1  0  0  0  0
 25 27  1  0  0  0  0
 27 28  2  0  0  0  0
 22 28  1  0  0  0  0
 27 29  1  0  0  0  0
 29 30  1  0  0  0  0
 29 31  2  0  0  0  0
M  END
> <ID>
CPD_377

$$$$
CPD_382
  Mrv1822 09091914012D          

 20 21  0  0  0  0            999 V2000
    1.2337   -2.0136    0.0000 C   0  0  0  0  0  0  0  0  0  0  0  0
    0.8212   -1.2991    0.0000 C   0  0  0  0  0  0  0  0  0  0  0  0
    0.4087   -0.5846    0.0000 C   0  0  0  0  0  0  0  0  0  0  0  0
    1.5356   -0.8866    0.0000 C   0  0  0  0  0  0  0  0  0  0  0  0
    0.1067   -1.7116    0.0000 C   0  0  0  0  0  0  0  0  0  0  0  0
    0.1067   -2.5366    0.0000 N   0  0  0  0  0  0  0  0  0  0  0  0
    0.7741   -3.0215    0.0000 C   0  0  0  0  0  0  0  0  0  0  0  0
    0.5192   -3.8062    0.0000 C   0  0  0  0  0  0  0  0  0  0  0  0
   -0.3058   -3.8062    0.0000 C   0  0  0  0  0  0  0  0  0  0  0  0
   -0.5607   -3.0215    0.0000 C   0  0  0  0  0  0  0  0  0  0  0  0
   -0.6078   -1.2991    0.0000 C   0  0  0  0  0  0  0  0  0  0  0  0
   -0.6078   -0.4741    0.0000 O   0  0  0  0  0  0  0  0  0  0  0  0
   -1.3222   -1.7116    0.0000 N   0  0  0  0  0  0  0  0  0  0  0  0
   -2.0367   -1.2991    0.0000 C   0  0  0  0  0  0  0  0  0  0  0  0
   -2.7512   -1.7116    0.0000 N   0  0  0  0  0  0  0  0  0  0  0  0
   -3.4656   -1.2991    0.0000 C   0  0  0  0  0  0  0  0  0  0  0  0
   -4.1801   -1.7116    0.0000 N   0  0  0  0  0  0  0  0  0  0  0  0
   -3.4656   -0.4741    0.0000 C   0  0  0  0  0  0  0  0  0  0  0  0
   -2.7512   -0.0616    0.0000 N   0  0  0  0  0  0  0  0  0  0  0  0
   -2.0367   -0.4741    0.0000 C   0  0  0  0  0  0  0  0  0  0  0  0
  1  2  1  0  0  0  0
  2  3  1  0  0  0  0
  2  4  1  0  0  0  0
  2  5  1  0  0  0  0
  5  6  1  0  0  0  0
  6  7  1  0  0  0  0
  7  8  2  0  0  0  0
  8  9  1  0  0  0  0
  9 10  2  0  0  0  0
  6 10  1  0  0  0  0
  5 11  1  0  0  0  0
 11 12  2  0  0  0  0
 11 13  1  0  0  0  0
 13 14  1  0  0  0  0
 14 15  2  0  0  0  0
 15 16  1  0  0  0  0
 16 17  1  0  0  0  0
 16 18  2  0  0  0  0
 18 19  1  0  0  0  0
 19 20  2  0  0  0  0
 14 20  1  0  0  0  0
M  END
> <ID>
CPD_382

$$$$
CPD_387
  Mrv1822 09091914012D          

 20 21  0  0  0  0            999 V2000
    2.8579   -0.0000    0.0000 C   0  0  0  0  0  0  0  0  0  0  0  0
    2.1434   -0.4125    0.0000 C   0  0  0  0  0  0  0  0  0  0  0  0
    1.4289    0.0000    0.0000 O   0  0  0  0  0  0  0  0  0  0  0  0
    2.1434   -1.2375    0.0000 O   0  0  0  0  0  0  0  0  0  0  0  0
    1.4289   -1.6500    0.0000 C   0  0  0  0  0  0  0  0  0  0  0  0
    1.4289   -2.4750    0.0000 C   0  0  0  0  0  0  0  0  0  0  0  0
    2.0964   -2.9599    0.0000 C   0  0  0  0  0  0  0  0  0  0  0  0
    1.8414   -3.7445    0.0000 C   0  0  0  0  0  0  0  0  0  0  0  0
    1.0164   -3.7445    0.0000 C   0  0  0  0  0  0  0  0  0  0  0  0
    0.7615   -2.9599    0.0000 O   0  0  0  0  0  0  0  0  0  0  0  0
    0.5315   -4.4120    0.0000 C   0  0  0  0  0  0  0  0  0  0  0  0
   -0.2890   -4.3257    0.0000 O   0  0  0  0  0  0  0  0  0  0  0  0
    0.8671   -5.1657    0.0000 N   0  0  0  0  0  0  0  0  0  0  0  0
    0.3822   -5.8331    0.0000 C   0  0  0  0  0  0  0  0  0  0  0  0
    0.7177   -6.5868    0.0000 N   0  0  0  0  0  0  0  0  0  0  0  0
    0.2328   -7.2542    0.0000 C   0  0  0  0  0  0  0  0  0  0  0  0
    0.5683   -8.0079    0.0000 N   0  0  0  0  0  0  0  0  0  0  0  0
   -0.5877   -7.1680    0.0000 C   0  0  0  0  0  0  0  0  0  0  0  0
   -0.9232   -6.4143    0.0000 N   0  0  0  0  0  0  0  0  0  0  0  0
   -0.4383   -5.7469    0.0000 C   0  0  0  0  0  0  0  0  0  0  0  0
  1  2  1  0  0  0  0
  2  3  2  0  0  0  0
  2  4  1  0  0  0  0
  4  5  1  0  0  0  0
  5  6  1  0  0  0  0
  6  7  2  0  0  0  0
  7  8  1  0  0  0  0
  8  9  2  0  0  0  0
  9 10  1  0  0  0  0
  6 10  1  0  0  0  0
  9 11  1  0  0  0  0
 11 12  2  0  0  0  0
 11 13  1  0  0  0  0
 13 14  1  0  0  0  0
 14 15  2  0  0  0  0
 15 16  1  0  0  0  0
 16 17  1  0  0  0  0
 16 18  2  0  0  0  0
 18 19  1  0  0  0  0
 19 20  2  0  0  0  0
 14 20  1  0  0  0  0
M  END
> <ID>
CPD_387

$$$$
CPD_392
  Mrv1822 09091914012D          

 37 39  0  0  0  0            999 V2000
   -2.8684   -2.6657    0.0000 C   0  0  0  0  0  0  0  0  0  0  0  0
   -2.6969   -3.4726    0.0000 N   0  0  0  0  0  0  0  0  0  0  0  0
   -1.9432   -3.8082    0.0000 C   0  0  0  0  0  0  0  0  0  0  0  0
   -1.2288   -3.3957    0.0000 C   0  0  0  0  0  0  0  0  0  0  0  0
   -0.5143   -3.8082    0.0000 C   0  0  0  0  0  0  0  0  0  0  0  0
   -0.5143   -4.6332    0.0000 O   0  0  0  0  0  0  0  0  0  0  0  0
    0.2002   -3.3957    0.0000 N   0  0  0  0  0  0  0  0  0  0  0  0
    0.9146   -3.8082    0.0000 C   0  0  0  0  0  0  0  0  0  0  0  0
    1.6291   -3.3957    0.0000 C   0  0  0  0  0  0  0  0  0  0  0  0
    1.6291   -2.5707    0.0000 O   0  0  0  0  0  0  0  0  0  0  0  0
    2.3436   -3.8082    0.0000 N   0  0  0  0  0  0  0  0  0  0  0  0
    3.0581   -3.3957    0.0000 C   0  0  0  0  0  0  0  0  0  0  0  0
    3.7725   -3.8082    0.0000 C   0  0  0  0  0  0  0  0  0  0  0  0
    3.7725   -4.6332    0.0000 N   0  0  0  0  0  0  0  0  0  0  0  0
    4.4870   -5.0457    0.0000 C   0  0  0  0  0  0  0  0  0  0  0  0
    5.2015   -4.6332    0.0000 O   0  0  0  0  0  0  0  0  0  0  0  0
    4.4870   -5.8707    0.0000 O   0  0  0  0  0  0  0  0  0  0  0  0
    5.2015   -6.2832    0.0000 C   0  0  0  0  0  0  0  0  0  0  0  0
    5.9159   -6.6957    0.0000 C   0  0  0  0  0  0  0  0  0  0  0  0
    5.6140   -5.5687    0.0000 C   0  0  0  0  0  0  0  0  0  0  0  0
    4.7890   -6.9977    0.0000 C   0  0  0  0  0  0  0  0  0  0  0  0
    3.0581   -5.0457    0.0000 C   0  0  0  0  0  0  0  0  0  0  0  0
    3.5884   -5.6777    0.0000 C   0  0  0  0  0  0  0  0  0  0  0  0
    2.5278   -5.6777    0.0000 C   0  0  0  0  0  0  0  0  0  0  0  0
    2.3436   -4.6332    0.0000 C   0  0  0  0  0  0  0  0  0  0  0  0
   -2.0295   -4.6287    0.0000 C   0  0  0  0  0  0  0  0  0  0  0  0
   -2.8364   -4.8002    0.0000 C   0  0  0  0  0  0  0  0  0  0  0  0
   -3.2489   -4.0857    0.0000 C   0  0  0  0  0  0  0  0  0  0  0  0
   -4.0694   -3.9995    0.0000 C   0  0  0  0  0  0  0  0  0  0  0  0
   -4.4050   -3.2458    0.0000 O   0  0  0  0  0  0  0  0  0  0  0  0
   -4.5543   -4.6669    0.0000 C   0  0  0  0  0  0  0  0  0  0  0  0
   -4.2188   -5.4206    0.0000 C   0  0  0  0  0  0  0  0  0  0  0  0
   -4.7037   -6.0880    0.0000 C   0  0  0  0  0  0  0  0  0  0  0  0
   -5.5242   -6.0018    0.0000 C   0  0  0  0  0  0  0  0  0  0  0  0
   -6.0091   -6.6692    0.0000 C   0  0  0  0  0  0  0  0  0  0  0  0
   -5.8598   -5.2481    0.0000 C   0  0  0  0  0  0  0  0  0  0  0  0
   -5.3748   -4.5807    0.0000 C   0  0  0  0  0  0  0  0  0  0  0  0
  1  2  1  0  0  0  0
  2  3  1  0  0  0  0
  3  4  1  0  0  0  0
  4  5  1  0  0  0  0
  5  6  2  0  0  0  0
  5  7  1  0  0  0  0
  7  8  1  0  0  0  0
  8  9  1  0  0  0  0
  9 10  2  0  0  0  0
  9 11  1  0  0  0  0
 11 12  1  0  0  0  0
 12 13  1  0  0  0  0
 13 14  1  0  0  0  0
 14 15  1  0  0  0  0
 15 16  2  0  0  0  0
 15 17  1  0  0  0  0
 17 18  1  0  0  0  0
 18 19  1  0  0  0  0
 18 20  1  0  0  0  0
 18 21  1  0  0  0  0
 14 22  1  0  0  0  0
 22 23  1  0  0  0  0
 22 24  1  0  0  0  0
 22 25  1  0  0  0  0
 11 25  1  0  0  0  0
  3 26  2  0  0  0  0
 26 27  1  0  0  0  0
 27 28  2  0  0  0  0
  2 28  1  0  0  0  0
 28 29  1  0  0  0  0
 29 30  2  0  0  0  0
 29 31  1  0  0  0  0
 31 32  2  0  0  0  0
 32 33  1  0  0  0  0
 33 34  2  0  0  0  0
 34 35  1  0  0  0  0
 34 36  1  0  0  0  0
 36 37  2  0  0  0  0
 31 37  1  0  0  0  0
M  END
> <ID>
CPD_392

$$$$
CPD_397
  Mrv1822 09091914012D          

 35 38  0  0  0  0            999 V2000
    4.0668    2.3479    0.0000 C   0  0  0  0  0  0  0  0  0  0  0  0
    3.3523    1.9354    0.0000 C   0  0  0  0  0  0  0  0  0  0  0  0
    3.3523    1.1104    0.0000 C   0  0  0  0  0  0  0  0  0  0  0  0
    2.6378    0.6979    0.0000 C   0  0  0  0  0  0  0  0  0  0  0  0
    1.9233    1.1104    0.0000 C   0  0  0  0  0  0  0  0  0  0  0  0
    1.9233    1.9354    0.0000 C   0  0  0  0  0  0  0  0  0  0  0  0
    2.6378    2.3479    0.0000 C   0  0  0  0  0  0  0  0  0  0  0  0
    1.1387    2.1904    0.0000 C   0  0  0  0  0  0  0  0  0  0  0  0
    0.8838    2.9750    0.0000 O   0  0  0  0  0  0  0  0  0  0  0  0
    0.6538    1.5229    0.0000 N   0  0  0  0  0  0  0  0  0  0  0  0
    1.1387    0.8555    0.0000 C   0  0  0  0  0  0  0  0  0  0  0  0
    0.8838    0.0709    0.0000 O   0  0  0  0  0  0  0  0  0  0  0  0
   -0.1712    1.5229    0.0000 C   0  0  0  0  0  0  0  0  0  0  0  0
   -0.5837    0.8085    0.0000 C   0  0  0  0  0  0  0  0  0  0  0  0
   -1.4087    0.8085    0.0000 C   0  0  0  0  0  0  0  0  0  0  0  0
   -1.8212    1.5229    0.0000 C   0  0  0  0  0  0  0  0  0  0  0  0
   -1.4087    2.2374    0.0000 C   0  0  0  0  0  0  0  0  0  0  0  0
   -0.5837    2.2374    0.0000 C   0  0  0  0  0  0  0  0  0  0  0  0
   -1.8212    0.0940    0.0000 C   0  0  0  0  0  0  0  0  0  0  0  0
   -1.4087   -0.6205    0.0000 O   0  0  0  0  0  0  0  0  0  0  0  0
   -2.6462    0.0940    0.0000 N   0  0  0  0  0  0  0  0  0  0  0  0
   -3.0587   -0.6205    0.0000 C   0  0  0  0  0  0  0  0  0  0  0  0
   -3.8837   -0.6205    0.0000 C   0  0  0  0  0  0  0  0  0  0  0  0
   -4.2962    0.0940    0.0000 N   0  0  0  0  0  0  0  0  0  0  0  0
   -5.1212    0.0940    0.0000 C   0  0  0  0  0  0  0  0  0  0  0  0
   -5.5337   -0.6205    0.0000 O   0  0  0  0  0  0  0  0  0  0  0  0
   -5.5337    0.8085    0.0000 O   0  0  0  0  0  0  0  0  0  0  0  0
   -6.3587    0.8085    0.0000 C   0  0  0  0  0  0  0  0  0  0  0  0
   -7.1837    0.8085    0.0000 C   0  0  0  0  0  0  0  0  0  0  0  0
   -6.3587    1.6335    0.0000 C   0  0  0  0  0  0  0  0  0  0  0  0
   -6.3587   -0.0165    0.0000 C   0  0  0  0  0  0  0  0  0  0  0  0
   -3.8837    0.8085    0.0000 C   0  0  0  0  0  0  0  0  0  0  0  0
   -4.6589    1.0906    0.0000 C   0  0  0  0  0  0  0  0  0  0  0  0
   -3.7404    1.6209    0.0000 C   0  0  0  0  0  0  0  0  0  0  0  0
   -3.0587    0.8085    0.0000 C   0  0  0  0  0  0  0  0  0  0  0  0
  1  2  1  0  0  0  0
  2  3  1  0  0  0  0
  3  4  1  0  0  0  0
  4  5  1  0  0  0  0
  5  6  1  0  0  0  0
  6  7  1  0  0  0  0
  2  7  1  0  0  0  0
  6  8  1  0  0  0  0
  8  9  2  0  0  0  0
  8 10  1  0  0  0  0
 10 11  1  0  0  0  0
  5 11  1  0  0  0  0
 11 12  2  0  0  0  0
 10 13  1  0  0  0  0
 13 14  2  0  0  0  0
 14 15  1  0  0  0  0
 15 16  2  0  0  0  0
 16 17  1  0  0  0  0
 17 18  2  0  0  0  0
 13 18  1  0  0  0  0
 15 19  1  0  0  0  0
 19 20  2  0  0  0  0
 19 21  1  0  0  0  0
 21 22  1  0  0  0  0
 22 23  1  0  0  0  0
 23 24  1  0  0  0  0
 24 25  1  0  0  0  0
 25 26  2  0  0  0  0
 25 27  1  0  0  0  0
 27 28  1  0  0  0  0
 28 29  1  0  0  0  0
 28 30  1  0  0  0  0
 28 31  1  0  0  0  0
 24 32  1  0  0  0  0
 32 33  1  0  0  0  0
 32 34  1  0  0  0  0
 32 35  1  0  0  0  0
 21 35  1  0  0  0  0
M  END
> <ID>
CPD_397

$$$$
CPD_402
  Mrv1822 09091914012D          

 31 32  0  0  0  0            999 V2000
    2.0367   -0.4741    0.0000 C   0  0  0  0  0  0  0  0  0  0  0  0
    2.0367   -1.2991    0.0000 C   0  0  0  0  0  0  0  0  0  0  0  0
    2.7041   -1.7840    0.0000 C   0  0  0  0  0  0  0  0  0  0  0  0
    2.4492   -2.5687    0.0000 O   0  0  0  0  0  0  0  0  0  0  0  0
    1.6242   -2.5687    0.0000 C   0  0  0  0  0  0  0  0  0  0  0  0
    1.1393   -3.2361    0.0000 N   0  0  0  0  0  0  0  0  0  0  0  0
    0.3188   -3.1499    0.0000 C   0  0  0  0  0  0  0  0  0  0  0  0
   -0.0168   -2.3962    0.0000 O   0  0  0  0  0  0  0  0  0  0  0  0
   -0.1661   -3.8173    0.0000 O   0  0  0  0  0  0  0  0  0  0  0  0
   -0.9866   -3.7311    0.0000 C   0  0  0  0  0  0  0  0  0  0  0  0
   -1.8071   -3.6448    0.0000 C   0  0  0  0  0  0  0  0  0  0  0  0
   -1.0728   -4.5515    0.0000 C   0  0  0  0  0  0  0  0  0  0  0  0
   -0.9004   -2.9106    0.0000 C   0  0  0  0  0  0  0  0  0  0  0  0
    1.3693   -1.7840    0.0000 N   0  0  0  0  0  0  0  0  0  0  0  0
    3.4888   -1.5291    0.0000 C   0  0  0  0  0  0  0  0  0  0  0  0
    3.6603   -0.7221    0.0000 O   0  0  0  0  0  0  0  0  0  0  0  0
    4.1019   -2.0811    0.0000 N   0  0  0  0  0  0  0  0  0  0  0  0
    4.8865   -1.8262    0.0000 C   0  0  0  0  0  0  0  0  0  0  0  0
    5.4996   -2.3782    0.0000 C   0  0  0  0  0  0  0  0  0  0  0  0
    5.3281   -3.1852    0.0000 N   0  0  0  0  0  0  0  0  0  0  0  0
    5.9411   -3.7372    0.0000 C   0  0  0  0  0  0  0  0  0  0  0  0
    6.7258   -3.4823    0.0000 O   0  0  0  0  0  0  0  0  0  0  0  0
    5.7696   -4.5442    0.0000 O   0  0  0  0  0  0  0  0  0  0  0  0
    6.3827   -5.0962    0.0000 C   0  0  0  0  0  0  0  0  0  0  0  0
    6.9958   -5.6483    0.0000 C   0  0  0  0  0  0  0  0  0  0  0  0
    5.8307   -5.7093    0.0000 C   0  0  0  0  0  0  0  0  0  0  0  0
    6.9347   -4.4831    0.0000 C   0  0  0  0  0  0  0  0  0  0  0  0
    4.5434   -3.4401    0.0000 C   0  0  0  0  0  0  0  0  0  0  0  0
    4.9307   -4.1686    0.0000 C   0  0  0  0  0  0  0  0  0  0  0  0
    3.8933   -3.9480    0.0000 C   0  0  0  0  0  0  0  0  0  0  0  0
    3.9303   -2.8881    0.0000 C   0  0  0  0  0  0  0  0  0  0  0  0
  1  2  1  0  0  0  0
  2  3  2  0  0  0  0
  3  4  1  0  0  0  0
  4  5  1  0  0  0  0
  5  6  1  0  0  0  0
  6  7  1  0  0  0  0
  7  8  2  0  0  0  0
  7  9  1  0  0  0  0
  9 10  1  0  0  0  0
 10 11  1  0  0  0  0
 10 12  1  0  0  0  0
 10 13  1  0  0  0  0
  5 14  2  0  0  0  0
  2 14  1  0  0  0  0
  3 15  1  0  0  0  0
 15 16  2  0  0  0  0
 15 17  1  0  0  0  0
 17 18  1  0  0  0  0
 18 19  1  0  0  0  0
 19 20  1  0  0  0  0
 20 21  1  0  0  0  0
 21 22  2  0  0  0  0
 21 23  1  0  0  0  0
 23 24  1  0  0  0  0
 24 25  1  0  0  0  0
 24 26  1  0  0  0  0
 24 27  1  0  0  0  0
 20 28  1  0  0  0  0
 28 29  1  0  0  0  0
 28 30  1  0  0  0  0
 28 31  1  0  0  0  0
 17 31  1  0  0  0  0
M  END
> <ID>
CPD_402

$$$$
CPD_407
  Mrv1822 09091914012D          

 30 32  0  0  0  0            999 V2000
   -6.4836    0.7903    0.0000 C   0  0  0  0  0  0  0  0  0  0  0  0
   -6.8191    0.0367    0.0000 O   0  0  0  0  0  0  0  0  0  0  0  0
   -6.3342   -0.6308    0.0000 C   0  0  0  0  0  0  0  0  0  0  0  0
   -6.6698   -1.3844    0.0000 O   0  0  0  0  0  0  0  0  0  0  0  0
   -5.5137   -0.5445    0.0000 C   0  0  0  0  0  0  0  0  0  0  0  0
   -5.1012    0.1699    0.0000 C   0  0  0  0  0  0  0  0  0  0  0  0
   -5.4368    0.9236    0.0000 N   0  0  0  0  0  0  0  0  0  0  0  0
   -4.9519    1.5910    0.0000 C   0  0  0  0  0  0  0  0  0  0  0  0
   -5.2874    2.3447    0.0000 O   0  0  0  0  0  0  0  0  0  0  0  0
   -4.1314    1.5048    0.0000 C   0  0  0  0  0  0  0  0  0  0  0  0
   -3.6465    2.1723    0.0000 C   0  0  0  0  0  0  0  0  0  0  0  0
   -3.1615    2.8397    0.0000 N   0  0  0  0  0  0  0  0  0  0  0  0
   -4.2942   -0.0016    0.0000 S   0  0  0  0  0  0  0  0  0  0  0  0
   -4.2080   -0.8221    0.0000 C   0  0  0  0  0  0  0  0  0  0  0  0
   -3.4935   -1.2346    0.0000 C   0  0  0  0  0  0  0  0  0  0  0  0
   -3.4935   -2.0596    0.0000 O   0  0  0  0  0  0  0  0  0  0  0  0
   -2.7791   -0.8221    0.0000 N   0  0  0  0  0  0  0  0  0  0  0  0
   -2.0646   -1.2346    0.0000 C   0  0  0  0  0  0  0  0  0  0  0  0
   -1.3501   -0.8221    0.0000 C   0  0  0  0  0  0  0  0  0  0  0  0
   -0.6357   -1.2346    0.0000 C   0  0  0  0  0  0  0  0  0  0  0  0
   -0.5494   -2.0551    0.0000 N   0  0  0  0  0  0  0  0  0  0  0  0
    0.2575   -2.2266    0.0000 N   0  0  0  0  0  0  0  0  0  0  0  0
    0.6700   -1.5121    0.0000 C   0  0  0  0  0  0  0  0  0  0  0  0
    0.1180   -0.8990    0.0000 C   0  0  0  0  0  0  0  0  0  0  0  0
    0.3730   -0.1144    0.0000 C   0  0  0  0  0  0  0  0  0  0  0  0
    1.1799    0.0571    0.0000 C   0  0  0  0  0  0  0  0  0  0  0  0
    1.7320   -0.5560    0.0000 C   0  0  0  0  0  0  0  0  0  0  0  0
    1.4770   -1.3406    0.0000 C   0  0  0  0  0  0  0  0  0  0  0  0
   -4.9617   -1.1576    0.0000 C   0  0  0  0  0  0  0  0  0  0  0  0
   -5.1332   -1.9646    0.0000 C   0  0  0  0  0  0  0  0  0  0  0  0
  1  2  1  0  0  0  0
  2  3  1  0  0  0  0
  3  4  2  0  0  0  0
  3  5  1  0  0  0  0
  5  6  2  0  0  0  0
  6  7  1  0  0  0  0
  7  8  1  0  0  0  0
  8  9  2  0  0  0  0
  8 10  1  0  0  0  0
 10 11  1  0  0  0  0
 11 12  3  0  0  0  0
  6 13  1  0  0  0  0
 13 14  1  0  0  0  0
 14 15  1  0  0  0  0
 15 16  2  0  0  0  0
 15 17  1  0  0  0  0
 17 18  1  0  0  0  0
 18 19  1  0  0  0  0
 19 20  1  0  0  0  0
 20 21  2  0  0  0  0
 21 22  1  0  0  0  0
 22 23  1  0  0  0  0
 23 24  2  0  0  0  0
 20 24  1  0  0  0  0
 24 25  1  0  0  0  0
 25 26  2  0  0  0  0
 26 27  1  0  0  0  0
 27 28  2  0  0  0  0
 23 28  1  0  0  0  0
 14 29  2  0  0  0  0
  5 29  1  0  0  0  0
 29 30  1  0  0  0  0
M  END
> <ID>
CPD_407

$$$$
CPD_412
  Mrv1822 09091914012D          

 31 34  0  0  0  0            999 V2000
   -4.3490    5.9764    0.0000 C   0  0  0  0  0  0  0  0  0  0  0  0
   -4.0941    5.1918    0.0000 C   0  0  0  0  0  0  0  0  0  0  0  0
   -3.2871    5.0203    0.0000 C   0  0  0  0  0  0  0  0  0  0  0  0
   -3.0321    4.2357    0.0000 C   0  0  0  0  0  0  0  0  0  0  0  0
   -2.2252    4.0641    0.0000 C   0  0  0  0  0  0  0  0  0  0  0  0
   -3.5842    3.6226    0.0000 C   0  0  0  0  0  0  0  0  0  0  0  0
   -3.3292    2.8379    0.0000 N   0  0  0  0  0  0  0  0  0  0  0  0
   -2.5223    2.6664    0.0000 C   0  0  0  0  0  0  0  0  0  0  0  0
   -1.9702    3.2795    0.0000 O   0  0  0  0  0  0  0  0  0  0  0  0
   -2.2673    1.8818    0.0000 C   0  0  0  0  0  0  0  0  0  0  0  0
   -1.4604    1.7103    0.0000 C   0  0  0  0  0  0  0  0  0  0  0  0
   -1.2054    0.9256    0.0000 C   0  0  0  0  0  0  0  0  0  0  0  0
   -1.7575    0.3126    0.0000 C   0  0  0  0  0  0  0  0  0  0  0  0
   -2.5644    0.4841    0.0000 C   0  0  0  0  0  0  0  0  0  0  0  0
   -2.8194    1.2687    0.0000 C   0  0  0  0  0  0  0  0  0  0  0  0
   -0.9083    2.3234    0.0000 C   0  0  0  0  0  0  0  0  0  0  0  0
   -1.1633    3.1080    0.0000 O   0  0  0  0  0  0  0  0  0  0  0  0
   -0.1014    2.1518    0.0000 N   0  0  0  0  0  0  0  0  0  0  0  0
    0.1536    1.3672    0.0000 C   0  0  0  0  0  0  0  0  0  0  0  0
   -0.3984    0.7541    0.0000 C   0  0  0  0  0  0  0  0  0  0  0  0
   -0.1435   -0.0305    0.0000 C   0  0  0  0  0  0  0  0  0  0  0  0
   -0.6284   -0.6979    0.0000 N   0  0  0  0  0  0  0  0  0  0  0  0
   -0.1435   -1.3654    0.0000 N   0  0  0  0  0  0  0  0  0  0  0  0
    0.6411   -1.1104    0.0000 C   0  0  0  0  0  0  0  0  0  0  0  0
    0.6411   -0.2854    0.0000 C   0  0  0  0  0  0  0  0  0  0  0  0
    1.3556    0.1271    0.0000 C   0  0  0  0  0  0  0  0  0  0  0  0
    2.0701   -0.2854    0.0000 C   0  0  0  0  0  0  0  0  0  0  0  0
    2.0701   -1.1104    0.0000 C   0  0  0  0  0  0  0  0  0  0  0  0
    1.3556   -1.5229    0.0000 C   0  0  0  0  0  0  0  0  0  0  0  0
   -4.3912    3.7941    0.0000 C   0  0  0  0  0  0  0  0  0  0  0  0
   -4.6461    4.5787    0.0000 C   0  0  0  0  0  0  0  0  0  0  0  0
  1  2  1  0  0  0  0
  2  3  2  0  0  0  0
  3  4  1  0  0  0  0
  4  5  1  0  0  0  0
  4  6  2  0  0  0  0
  6  7  1  0  0  0  0
  7  8  1  0  0  0  0
  8  9  2  0  0  0  0
  8 10  1  0  0  0  0
 10 11  2  0  0  0  0
 11 12  1  0  0  0  0
 12 13  2  0  0  0  0
 13 14  1  0  0  0  0
 14 15  2  0  0  0  0
 10 15  1  0  0  0  0
 11 16  1  0  0  0  0
 16 17  2  0  0  0  0
 16 18  1  0  0  0  0
 18 19  1  0  0  0  0
 19 20  1  0  0  0  0
 20 21  1  0  0  0  0
 21 22  2  0  0  0  0
 22 23  1  0  0  0  0
 23 24  1  0  0  0  0
 24 25  2  0  0  0  0
 21 25  1  0  0  0  0
 25 26  1  0  0  0  0
 26 27  2  0  0  0  0
 27 28  1  0  0  0  0
 28 29  2  0  0  0  0
 24 29  1  0  0  0  0
  6 30  1  0  0  0  0
 30 31  2  0  0  0  0
  2 31  1  0  0  0  0
M  END
> <ID>
CPD_412

$$$$
CPD_417
  Mrv1822 09091914012D          

 22 24  0  0  0  0            999 V2000
   -4.9225   -2.0596    0.0000 Cl  0  0  0  0  0  0  0  0  0  0  0  0
   -4.9225   -1.2346    0.0000 C   0  0  0  0  0  0  0  0  0  0  0  0
   -5.6370   -0.8221    0.0000 C   0  0  0  0  0  0  0  0  0  0  0  0
   -5.6370    0.0029    0.0000 C   0  0  0  0  0  0  0  0  0  0  0  0
   -4.9225    0.4154    0.0000 C   0  0  0  0  0  0  0  0  0  0  0  0
   -4.2080    0.0029    0.0000 C   0  0  0  0  0  0  0  0  0  0  0  0
   -3.4935    0.4154    0.0000 Cl  0  0  0  0  0  0  0  0  0  0  0  0
   -4.2080   -0.8221    0.0000 C   0  0  0  0  0  0  0  0  0  0  0  0
   -3.4935   -1.2346    0.0000 C   0  0  0  0  0  0  0  0  0  0  0  0
   -3.4935   -2.0596    0.0000 O   0  0  0  0  0  0  0  0  0  0  0  0
   -2.7791   -0.8221    0.0000 N   0  0  0  0  0  0  0  0  0  0  0  0
   -2.0646   -1.2346    0.0000 C   0  0  0  0  0  0  0  0  0  0  0  0
   -1.3501   -0.8221    0.0000 C   0  0  0  0  0  0  0  0  0  0  0  0
   -0.6357   -1.2346    0.0000 C   0  0  0  0  0  0  0  0  0  0  0  0
   -0.5494   -2.0551    0.0000 N   0  0  0  0  0  0  0  0  0  0  0  0
    0.2575   -2.2266    0.0000 N   0  0  0  0  0  0  0  0  0  0  0  0
    0.6700   -1.5121    0.0000 C   0  0  0  0  0  0  0  0  0  0  0  0
    0.1180   -0.8990    0.0000 C   0  0  0  0  0  0  0  0  0  0  0  0
    0.3730   -0.1144    0.0000 C   0  0  0  0  0  0  0  0  0  0  0  0
    1.1799    0.0571    0.0000 C   0  0  0  0  0  0  0  0  0  0  0  0
    1.7320   -0.5560    0.0000 C   0  0  0  0  0  0  0  0  0  0  0  0
    1.4770   -1.3406    0.0000 C   0  0  0  0  0  0  0  0  0  0  0  0
  1  2  1  0  0  0  0
  2  3  2  0  0  0  0
  3  4  1  0  0  0  0
  4  5  2  0  0  0  0
  5  6  1  0  0  0  0
  6  7  1  0  0  0  0
  6  8  2  0  0  0  0
  2  8  1  0  0  0  0
  8  9  1  0  0  0  0
  9 10  2  0  0  0  0
  9 11  1  0  0  0  0
 11 12  1  0  0  0  0
 12 13  1  0  0  0  0
 13 14  1  0  0  0  0
 14 15  2  0  0  0  0
 15 16  1  0  0  0  0
 16 17  1  0  0  0  0
 17 18  2  0  0  0  0
 14 18  1  0  0  0  0
 18 19  1  0  0  0  0
 19 20  2  0  0  0  0
 20 21  1  0  0  0  0
 21 22  2  0  0  0  0
 17 22  1  0  0  0  0
M  END
> <ID>
CPD_417

$$$$
CPD_422
  Mrv1822 09091914012D          

 31 34  0  0  0  0            999 V2000
   -0.2093    3.1792    0.0000 C   0  0  0  0  0  0  0  0  0  0  0  0
   -0.2093    2.3542    0.0000 O   0  0  0  0  0  0  0  0  0  0  0  0
   -0.9237    1.9417    0.0000 C   0  0  0  0  0  0  0  0  0  0  0  0
   -0.9237    1.1167    0.0000 C   0  0  0  0  0  0  0  0  0  0  0  0
   -1.6382    0.7042    0.0000 C   0  0  0  0  0  0  0  0  0  0  0  0
   -2.3527    1.1167    0.0000 C   0  0  0  0  0  0  0  0  0  0  0  0
   -2.3527    1.9417    0.0000 C   0  0  0  0  0  0  0  0  0  0  0  0
   -1.6382    2.3542    0.0000 C   0  0  0  0  0  0  0  0  0  0  0  0
   -0.2093    0.7042    0.0000 C   0  0  0  0  0  0  0  0  0  0  0  0
    0.5052    1.1167    0.0000 C   0  0  0  0  0  0  0  0  0  0  0  0
    1.2197    0.7042    0.0000 C   0  0  0  0  0  0  0  0  0  0  0  0
    1.2197   -0.1208    0.0000 C   0  0  0  0  0  0  0  0  0  0  0  0
    0.5052   -0.5333    0.0000 C   0  0  0  0  0  0  0  0  0  0  0  0
   -0.2093   -0.1208    0.0000 C   0  0  0  0  0  0  0  0  0  0  0  0
    1.9341   -0.5333    0.0000 C   0  0  0  0  0  0  0  0  0  0  0  0
    2.6486   -0.1208    0.0000 O   0  0  0  0  0  0  0  0  0  0  0  0
    1.9341   -1.3583    0.0000 N   0  0  0  0  0  0  0  0  0  0  0  0
    2.5175   -1.9417    0.0000 C   0  0  0  0  0  0  0  0  0  0  0  0
    1.9341   -2.5250    0.0000 C   0  0  0  0  0  0  0  0  0  0  0  0
    1.3508   -1.9417    0.0000 C   0  0  0  0  0  0  0  0  0  0  0  0
    1.9341   -3.3500    0.0000 O   0  0  0  0  0  0  0  0  0  0  0  0
    1.2197   -3.7625    0.0000 C   0  0  0  0  0  0  0  0  0  0  0  0
    1.2197   -4.5875    0.0000 N   0  0  0  0  0  0  0  0  0  0  0  0
    0.5052   -5.0000    0.0000 C   0  0  0  0  0  0  0  0  0  0  0  0
   -0.2093   -4.5875    0.0000 C   0  0  0  0  0  0  0  0  0  0  0  0
   -0.2093   -3.7625    0.0000 C   0  0  0  0  0  0  0  0  0  0  0  0
    0.5052   -3.3500    0.0000 C   0  0  0  0  0  0  0  0  0  0  0  0
   -0.9237   -5.0000    0.0000 C   0  0  0  0  0  0  0  0  0  0  0  0
   -1.6382   -5.4125    0.0000 F   0  0  0  0  0  0  0  0  0  0  0  0
   -1.3362   -4.2856    0.0000 F   0  0  0  0  0  0  0  0  0  0  0  0
   -0.5112   -5.7145    0.0000 F   0  0  0  0  0  0  0  0  0  0  0  0
  1  2  1  0  0  0  0
  2  3  1  0  0  0  0
  3  4  2  0  0  0  0
  4  5  1  0  0  0  0
  5  6  2  0  0  0  0
  6  7  1  0  0  0  0
  7  8  2  0  0  0  0
  3  8  1  0  0  0  0
  4  9  1  0  0  0  0
  9 10  2  0  0  0  0
 10 11  1  0  0  0  0
 11 12  2  0  0  0  0
 12 13  1  0  0  0  0
 13 14  2  0  0  0  0
  9 14  1  0  0  0  0
 12 15  1  0  0  0  0
 15 16  2  0  0  0  0
 15 17  1  0  0  0  0
 17 18  1  0  0  0  0
 18 19  1  0  0  0  0
 19 20  1  0  0  0  0
 17 20  1  0  0  0  0
 19 21  1  0  0  0  0
 21 22  1  0  0  0  0
 22 23  2  0  0  0  0
 23 24  1  0  0  0  0
 24 25  2  0  0  0  0
 25 26  1  0  0  0  0
 26 27  2  0  0  0  0
 22 27  1  0  0  0  0
 25 28  1  0  0  0  0
 28 29  1  0  0  0  0
 28 30  1  0  0  0  0
 28 31  1  0  0  0  0
M  END
> <ID>
CPD_422

$$$$
CPD_427
  Mrv1822 09091914012D          

 32 35  0  0  0  0            999 V2000
    1.2197    3.1792    0.0000 O   0  0  0  0  0  0  0  0  0  0  0  0
    1.2197    2.3542    0.0000 C   0  0  0  0  0  0  0  0  0  0  0  0
    0.5052    1.9417    0.0000 O   0  0  0  0  0  0  0  0  0  0  0  0
    1.9341    1.9417    0.0000 C   0  0  0  0  0  0  0  0  0  0  0  0
    2.6486    2.3542    0.0000 C   0  0  0  0  0  0  0  0  0  0  0  0
    3.3631    1.9417    0.0000 C   0  0  0  0  0  0  0  0  0  0  0  0
    3.3631    1.1167    0.0000 C   0  0  0  0  0  0  0  0  0  0  0  0
    2.6486    0.7042    0.0000 C   0  0  0  0  0  0  0  0  0  0  0  0
    1.9341    1.1167    0.0000 C   0  0  0  0  0  0  0  0  0  0  0  0
    1.2197    0.7042    0.0000 C   0  0  0  0  0  0  0  0  0  0  0  0
    1.2197   -0.1208    0.0000 C   0  0  0  0  0  0  0  0  0  0  0  0
    0.5052   -0.5333    0.0000 C   0  0  0  0  0  0  0  0  0  0  0  0
   -0.2093   -0.1208    0.0000 C   0  0  0  0  0  0  0  0  0  0  0  0
   -0.2093    0.7042    0.0000 C   0  0  0  0  0  0  0  0  0  0  0  0
    0.5052    1.1167    0.0000 C   0  0  0  0  0  0  0  0  0  0  0  0
    1.9341   -0.5333    0.0000 C   0  0  0  0  0  0  0  0  0  0  0  0
    2.6486   -0.1208    0.0000 O   0  0  0  0  0  0  0  0  0  0  0  0
    1.9341   -1.3583    0.0000 N   0  0  0  0  0  0  0  0  0  0  0  0
    2.5175   -1.9417    0.0000 C   0  0  0  0  0  0  0  0  0  0  0  0
    1.9341   -2.5250    0.0000 C   0  0  0  0  0  0  0  0  0  0  0  0
    1.3508   -1.9417    0.0000 C   0  0  0  0  0  0  0  0  0  0  0  0
    1.9341   -3.3500    0.0000 O   0  0  0  0  0  0  0  0  0  0  0  0
    1.2197   -3.7625    0.0000 C   0  0  0  0  0  0  0  0  0  0  0  0
    1.2197   -4.5875    0.0000 N   0  0  0  0  0  0  0  0  0  0  0  0
    0.5052   -5.0000    0.0000 C   0  0  0  0  0  0  0  0  0  0  0  0
   -0.2093   -4.5875    0.0000 C   0  0  0  0  0  0  0  0  0  0  0  0
   -0.2093   -3.7625    0.0000 C   0  0  0  0  0  0  0  0  0  0  0  0
    0.5052   -3.3500    0.0000 C   0  0  0  0  0  0  0  0  0  0  0  0
   -0.9237   -5.0000    0.0000 C   0  0  0  0  0  0  0  0  0  0  0  0
   -1.6382   -5.4125    0.0000 F   0  0  0  0  0  0  0  0  0  0  0  0
   -1.3362   -4.2856    0.0000 F   0  0  0  0  0  0  0  0  0  0  0  0
   -0.5112   -5.7145    0.0000 F   0  0  0  0  0  0  0  0  0  0  0  0
  1  2  1  0  0  0  0
  2  3  2  0  0  0  0
  2  4  1  0  0  0  0
  4  5  2  0  0  0  0
  5  6  1  0  0  0  0
  6  7  2  0  0  0  0
  7  8  1  0  0  0  0
  8  9  2  0  0  0  0
  4  9  1  0  0  0  0
  9 10  1  0  0  0  0
 10 11  2  0  0  0  0
 11 12  1  0  0  0  0
 12 13  2  0  0  0  0
 13 14  1  0  0  0  0
 14 15  2  0  0  0  0
 10 15  1  0  0  0  0
 11 16  1  0  0  0  0
 16 17  2  0  0  0  0
 16 18  1  0  0  0  0
 18 19  1  0  0  0  0
 19 20  1  0  0  0  0
 20 21  1  0  0  0  0
 18 21  1  0  0  0  0
 20 22  1  0  0  0  0
 22 23  1  0  0  0  0
 23 24  2  0  0  0  0
 24 25  1  0  0  0  0
 25 26  2  0  0  0  0
 26 27  1  0  0  0  0
 27 28  2  0  0  0  0
 23 28  1  0  0  0  0
 26 29  1  0  0  0  0
 29 30  1  0  0  0  0
 29 31  1  0  0  0  0
 29 32  1  0  0  0  0
M  END
> <ID>
CPD_427

$$$$
CPD_432
  Mrv1822 09091914012D          

 31 34  0  0  0  0            999 V2000
    3.4143    3.7148    0.0000 C   0  0  0  0  0  0  0  0  0  0  0  0
    3.5858    2.9078    0.0000 C   0  0  0  0  0  0  0  0  0  0  0  0
    2.9727    2.3558    0.0000 C   0  0  0  0  0  0  0  0  0  0  0  0
    3.1443    1.5488    0.0000 C   0  0  0  0  0  0  0  0  0  0  0  0
    2.5312    0.9968    0.0000 C   0  0  0  0  0  0  0  0  0  0  0  0
    1.7465    1.2517    0.0000 C   0  0  0  0  0  0  0  0  0  0  0  0
    1.5750    2.0587    0.0000 C   0  0  0  0  0  0  0  0  0  0  0  0
    2.1881    2.6107    0.0000 C   0  0  0  0  0  0  0  0  0  0  0  0
    1.1334    0.6997    0.0000 C   0  0  0  0  0  0  0  0  0  0  0  0
    0.3265    0.8712    0.0000 C   0  0  0  0  0  0  0  0  0  0  0  0
   -0.0860    0.1567    0.0000 S   0  0  0  0  0  0  0  0  0  0  0  0
    0.4660   -0.4564    0.0000 C   0  0  0  0  0  0  0  0  0  0  0  0
    0.2945   -1.2633    0.0000 N   0  0  0  0  0  0  0  0  0  0  0  0
    1.2197   -0.1208    0.0000 C   0  0  0  0  0  0  0  0  0  0  0  0
    1.9341   -0.5333    0.0000 C   0  0  0  0  0  0  0  0  0  0  0  0
    2.6486   -0.1208    0.0000 O   0  0  0  0  0  0  0  0  0  0  0  0
    1.9341   -1.3583    0.0000 N   0  0  0  0  0  0  0  0  0  0  0  0
    2.5175   -1.9417    0.0000 C   0  0  0  0  0  0  0  0  0  0  0  0
    1.9341   -2.5250    0.0000 C   0  0  0  0  0  0  0  0  0  0  0  0
    1.3508   -1.9417    0.0000 C   0  0  0  0  0  0  0  0  0  0  0  0
    1.9341   -3.3500    0.0000 O   0  0  0  0  0  0  0  0  0  0  0  0
    1.2197   -3.7625    0.0000 C   0  0  0  0  0  0  0  0  0  0  0  0
    1.2197   -4.5875    0.0000 N   0  0  0  0  0  0  0  0  0  0  0  0
    0.5052   -5.0000    0.0000 C   0  0  0  0  0  0  0  0  0  0  0  0
   -0.2093   -4.5875    0.0000 C   0  0  0  0  0  0  0  0  0  0  0  0
   -0.2093   -3.7625    0.0000 C   0  0  0  0  0  0  0  0  0  0  0  0
    0.5052   -3.3500    0.0000 C   0  0  0  0  0  0  0  0  0  0  0  0
   -0.9237   -5.0000    0.0000 C   0  0  0  0  0  0  0  0  0  0  0  0
   -1.6382   -5.4125    0.0000 F   0  0  0  0  0  0  0  0  0  0  0  0
   -1.3362   -4.2856    0.0000 F   0  0  0  0  0  0  0  0  0  0  0  0
   -0.5112   -5.7145    0.0000 F   0  0  0  0  0  0  0  0  0  0  0  0
  1  2  1  0  0  0  0
  2  3  1  0  0  0  0
  3  4  2  0  0  0  0
  4  5  1  0  0  0  0
  5  6  2  0  0  0  0
  6  7  1  0  0  0  0
  7  8  2  0  0  0  0
  3  8  1  0  0  0  0
  6  9  1  0  0  0  0
  9 10  2  0  0  0  0
 10 11  1  0  0  0  0
 11 12  1  0  0  0  0
 12 13  1  0  0  0  0
 12 14  2  0  0  0  0
  9 14  1  0  0  0  0
 14 15  1  0  0  0  0
 15 16  2  0  0  0  0
 15 17  1  0  0  0  0
 17 18  1  0  0  0  0
 18 19  1  0  0  0  0
 19 20  1  0  0  0  0
 17 20  1  0  0  0  0
 19 21  1  0  0  0  0
 21 22  1  0  0  0  0
 22 23  2  0  0  0  0
 23 24  1  0  0  0  0
 24 25  2  0  0  0  0
 25 26  1  0  0  0  0
 26 27  2  0  0  0  0
 22 27  1  0  0  0  0
 25 28  1  0  0  0  0
 28 29  1  0  0  0  0
 28 30  1  0  0  0  0
 28 31  1  0  0  0  0
M  END
> <ID>
CPD_432

$$$$
CPD_437
  Mrv1822 09091914012D          

 29 32  0  0  0  0            999 V2000
   -1.6613    3.4092    0.0000 N   0  0  0  0  0  0  0  0  0  0  0  0
   -0.8767    3.6641    0.0000 C   0  0  0  0  0  0  0  0  0  0  0  0
   -0.6218    4.4487    0.0000 N   0  0  0  0  0  0  0  0  0  0  0  0
    0.2032    4.4487    0.0000 N   0  0  0  0  0  0  0  0  0  0  0  0
    0.4582    3.6641    0.0000 C   0  0  0  0  0  0  0  0  0  0  0  0
   -0.2093    3.1792    0.0000 C   0  0  0  0  0  0  0  0  0  0  0  0
   -0.2093    2.3542    0.0000 C   0  0  0  0  0  0  0  0  0  0  0  0
   -0.9237    1.9417    0.0000 O   0  0  0  0  0  0  0  0  0  0  0  0
    0.5052    1.9417    0.0000 N   0  0  0  0  0  0  0  0  0  0  0  0
    0.5052    1.1167    0.0000 C   0  0  0  0  0  0  0  0  0  0  0  0
    1.2197    0.7042    0.0000 C   0  0  0  0  0  0  0  0  0  0  0  0
    1.2197   -0.1208    0.0000 C   0  0  0  0  0  0  0  0  0  0  0  0
    0.5052   -0.5333    0.0000 C   0  0  0  0  0  0  0  0  0  0  0  0
   -0.2093   -0.1208    0.0000 C   0  0  0  0  0  0  0  0  0  0  0  0
   -0.2093    0.7042    0.0000 C   0  0  0  0  0  0  0  0  0  0  0  0
    1.9341   -0.5333    0.0000 C   0  0  0  0  0  0  0  0  0  0  0  0
    2.6486   -0.1208    0.0000 O   0  0  0  0  0  0  0  0  0  0  0  0
    1.9341   -1.3583    0.0000 N   0  0  0  0  0  0  0  0  0  0  0  0
    2.5175   -1.9417    0.0000 C   0  0  0  0  0  0  0  0  0  0  0  0
    1.9341   -2.5250    0.0000 C   0  0  0  0  0  0  0  0  0  0  0  0
    1.3508   -1.9417    0.0000 C   0  0  0  0  0  0  0  0  0  0  0  0
    1.9341   -3.3500    0.0000 C   0  0  0  0  0  0  0  0  0  0  0  0
    2.6486   -3.7625    0.0000 O   0  0  0  0  0  0  0  0  0  0  0  0
    1.2197   -3.7625    0.0000 N   0  0  0  0  0  0  0  0  0  0  0  0
    1.2197   -4.5875    0.0000 C   0  0  0  0  0  0  0  0  0  0  0  0
    0.5052   -5.0000    0.0000 C   0  0  0  0  0  0  0  0  0  0  0  0
   -0.2093   -4.5875    0.0000 O   0  0  0  0  0  0  0  0  0  0  0  0
   -0.2093   -3.7625    0.0000 C   0  0  0  0  0  0  0  0  0  0  0  0
    0.5052   -3.3500    0.0000 C   0  0  0  0  0  0  0  0  0  0  0  0
  1  2  1  0  0  0  0
  2  3  2  0  0  0  0
  3  4  1  0  0  0  0
  4  5  1  0  0  0  0
  5  6  2  0  0  0  0
  2  6  1  0  0  0  0
  6  7  1  0  0  0  0
  7  8  2  0  0  0  0
  7  9  1  0  0  0  0
  9 10  1  0  0  0  0
 10 11  2  0  0  0  0
 11 12  1  0  0  0  0
 12 13  2  0  0  0  0
 13 14  1  0  0  0  0
 14 15  2  0  0  0  0
 10 15  1  0  0  0  0
 12 16  1  0  0  0  0
 16 17  2  0  0  0  0
 16 18  1  0  0  0  0
 18 19  1  0  0  0  0
 19 20  1  0  0  0  0
 20 21  1  0  0  0  0
 18 21  1  0  0  0  0
 20 22  1  0  0  0  0
 22 23  2  0  0  0  0
 22 24  1  0  0  0  0
 24 25  1  0  0  0  0
 25 26  1  0  0  0  0
 26 27  1  0  0  0  0
 27 28  1  0  0  0  0
 28 29  1  0  0  0  0
 24 29  1  0  0  0  0
M  END
> <ID>
CPD_437

$$$$
CPD_442
  Mrv1822 09091914012D          

 26 29  0  0  1  0            999 V2000
    0.9606    1.1957    0.0000 N   0  0  0  0  0  0  0  0  0  0  0  0
    0.1536    1.3672    0.0000 C   0  0  1  0  0  0  0  0  0  0  0  0
   -0.3984    0.7541    0.0000 C   0  0  0  0  0  0  0  0  0  0  0  0
   -0.1435   -0.0305    0.0000 C   0  0  0  0  0  0  0  0  0  0  0  0
   -0.6284   -0.6979    0.0000 C   0  0  0  0  0  0  0  0  0  0  0  0
   -0.1435   -1.3654    0.0000 N   0  0  0  0  0  0  0  0  0  0  0  0
    0.6411   -1.1104    0.0000 C   0  0  0  0  0  0  0  0  0  0  0  0
    0.6411   -0.2854    0.0000 C   0  0  0  0  0  0  0  0  0  0  0  0
    1.3556    0.1271    0.0000 C   0  0  0  0  0  0  0  0  0  0  0  0
    2.0701   -0.2854    0.0000 C   0  0  0  0  0  0  0  0  0  0  0  0
    2.0701   -1.1104    0.0000 C   0  0  0  0  0  0  0  0  0  0  0  0
    1.3556   -1.5229    0.0000 C   0  0  0  0  0  0  0  0  0  0  0  0
   -0.1014    2.1518    0.0000 C   0  0  0  0  0  0  0  0  0  0  0  0
   -0.9083    2.3234    0.0000 O   0  0  0  0  0  0  0  0  0  0  0  0
    0.4507    2.7649    0.0000 N   0  0  0  0  0  0  0  0  0  0  0  0
    0.4075    3.5888    0.0000 C   0  0  0  0  0  0  0  0  0  0  0  0
    1.2314    3.6320    0.0000 C   0  0  0  0  0  0  0  0  0  0  0  0
    1.2745    2.8081    0.0000 C   0  0  0  0  0  0  0  0  0  0  0  0
    1.7834    4.2451    0.0000 C   0  0  0  0  0  0  0  0  0  0  0  0
    1.5285    5.0297    0.0000 O   0  0  0  0  0  0  0  0  0  0  0  0
    2.5904    4.0735    0.0000 N   0  0  0  0  0  0  0  0  0  0  0  0
    3.1424    4.6866    0.0000 C   0  0  0  0  0  0  0  0  0  0  0  0
    3.9494    4.5151    0.0000 C   0  0  0  0  0  0  0  0  0  0  0  0
    4.2043    3.7305    0.0000 O   0  0  0  0  0  0  0  0  0  0  0  0
    3.6523    3.1174    0.0000 C   0  0  0  0  0  0  0  0  0  0  0  0
    2.8453    3.2889    0.0000 C   0  0  0  0  0  0  0  0  0  0  0  0
  2  1  1  1  0  0  0
  2  3  1  0  0  0  0
  3  4  1  0  0  0  0
  4  5  2  0  0  0  0
  5  6  1  0  0  0  0
  6  7  1  0  0  0  0
  7  8  2  0  0  0  0
  4  8  1  0  0  0  0
  8  9  1  0  0  0  0
  9 10  2  0  0  0  0
 10 11  1  0  0  0  0
 11 12  2  0  0  0  0
  7 12  1  0  0  0  0
  2 13  1  0  0  0  0
 13 14  2  0  0  0  0
 13 15  1  0  0  0  0
 15 16  1  0  0  0  0
 16 17  1  0  0  0  0
 17 18  1  0  0  0  0
 15 18  1  0  0  0  0
 17 19  1  0  0  0  0
 19 20  2  0  0  0  0
 19 21  1  0  0  0  0
 21 22  1  0  0  0  0
 22 23  1  0  0  0  0
 23 24  1  0  0  0  0
 24 25  1  0  0  0  0
 25 26  1  0  0  0  0
 21 26  1  0  0  0  0
M  END
> <ID>
CPD_442

$$$$
CPD_447
  Mrv1822 09091914012D          

 23 24  0  0  1  0            999 V2000
   -1.5334   -2.7564    0.0000 C   0  0  0  0  0  0  0  0  0  0  0  0
   -0.7084   -2.7564    0.0000 C   0  0  0  0  0  0  0  0  0  0  0  0
   -0.2959   -3.4709    0.0000 C   0  0  0  0  0  0  0  0  0  0  0  0
    0.5291   -3.4709    0.0000 C   0  0  0  0  0  0  0  0  0  0  0  0
    0.9416   -4.1853    0.0000 C   0  0  2  0  0  0  0  0  0  0  0  0
    1.7666   -4.1853    0.0000 N   0  0  0  0  0  0  0  0  0  0  0  0
    2.1791   -3.4709    0.0000 C   0  0  0  0  0  0  0  0  0  0  0  0
    3.0041   -3.4709    0.0000 C   0  0  0  0  0  0  0  0  0  0  0  0
    1.7666   -2.7564    0.0000 O   0  0  0  0  0  0  0  0  0  0  0  0
    0.5291   -4.8998    0.0000 C   0  0  0  0  0  0  0  0  0  0  0  0
    0.9416   -5.6143    0.0000 O   0  0  0  0  0  0  0  0  0  0  0  0
   -0.2959   -4.8998    0.0000 N   0  0  0  0  0  0  0  0  0  0  0  0
   -0.8793   -5.4832    0.0000 C   0  0  0  0  0  0  0  0  0  0  0  0
   -1.4627   -4.8998    0.0000 C   0  0  0  0  0  0  0  0  0  0  0  0
   -0.8793   -4.3164    0.0000 C   0  0  0  0  0  0  0  0  0  0  0  0
   -2.2877   -4.8998    0.0000 C   0  0  0  0  0  0  0  0  0  0  0  0
   -2.7002   -4.1853    0.0000 O   0  0  0  0  0  0  0  0  0  0  0  0
   -2.7002   -5.6143    0.0000 N   0  0  0  0  0  0  0  0  0  0  0  0
   -2.2877   -6.3287    0.0000 C   0  0  0  0  0  0  0  0  0  0  0  0
   -2.7002   -7.0432    0.0000 C   0  0  0  0  0  0  0  0  0  0  0  0
   -3.5252   -7.0432    0.0000 O   0  0  0  0  0  0  0  0  0  0  0  0
   -3.9377   -6.3287    0.0000 C   0  0  0  0  0  0  0  0  0  0  0  0
   -3.5252   -5.6143    0.0000 C   0  0  0  0  0  0  0  0  0  0  0  0
  1  2  1  0  0  0  0
  2  3  1  0  0  0  0
  3  4  1  0  0  0  0
  5  4  1  0  0  0  0
  5  6  1  6  0  0  0
  6  7  1  0  0  0  0
  7  8  1  0  0  0  0
  7  9  2  0  0  0  0
  5 10  1  0  0  0  0
 10 11  2  0  0  0  0
 10 12  1  0  0  0  0
 12 13  1  0  0  0  0
 13 14  1  0  0  0  0
 14 15  1  0  0  0  0
 12 15  1  0  0  0  0
 14 16  1  0  0  0  0
 16 17  2  0  0  0  0
 16 18  1  0  0  0  0
 18 19  1  0  0  0  0
 19 20  1  0  0  0  0
 20 21  1  0  0  0  0
 21 22  1  0  0  0  0
 22 23  1  0  0  0  0
 18 23  1  0  0  0  0
M  END
> <ID>
CPD_447

$$$$
CPD_452
  Mrv1822 09091914012D          

 30 34  0  0  0  0            999 V2000
   -0.2549    0.7846    0.0000 C   0  0  0  0  0  0  0  0  0  0  0  0
   -0.0000   -0.0000    0.0000 C   0  0  0  0  0  0  0  0  0  0  0  0
   -0.4849   -0.6674    0.0000 N   0  0  0  0  0  0  0  0  0  0  0  0
   -0.0000   -1.3349    0.0000 N   0  0  0  0  0  0  0  0  0  0  0  0
    0.7846   -1.0799    0.0000 C   0  0  0  0  0  0  0  0  0  0  0  0
    0.7846   -0.2549    0.0000 C   0  0  0  0  0  0  0  0  0  0  0  0
    1.5692    0.0000    0.0000 C   0  0  0  0  0  0  0  0  0  0  0  0
    2.0542   -0.6674    0.0000 C   0  0  0  0  0  0  0  0  0  0  0  0
    1.5692   -1.3349    0.0000 S   0  0  0  0  0  0  0  0  0  0  0  0
    2.8792   -0.6674    0.0000 C   0  0  0  0  0  0  0  0  0  0  0  0
    3.2917   -1.3819    0.0000 O   0  0  0  0  0  0  0  0  0  0  0  0
    3.2917    0.0470    0.0000 N   0  0  0  0  0  0  0  0  0  0  0  0
    3.0781    0.8439    0.0000 C   0  0  0  0  0  0  0  0  0  0  0  0
    3.8750    1.0574    0.0000 C   0  0  0  0  0  0  0  0  0  0  0  0
    4.0886    0.2606    0.0000 C   0  0  0  0  0  0  0  0  0  0  0  0
    4.2875    1.7719    0.0000 C   0  0  0  0  0  0  0  0  0  0  0  0
    3.8750    2.4864    0.0000 O   0  0  0  0  0  0  0  0  0  0  0  0
    5.1125    1.7719    0.0000 N   0  0  0  0  0  0  0  0  0  0  0  0
    5.5250    2.4864    0.0000 C   0  0  0  0  0  0  0  0  0  0  0  0
    6.3500    2.4864    0.0000 C   0  0  0  0  0  0  0  0  0  0  0  0
    6.7625    1.7719    0.0000 O   0  0  0  0  0  0  0  0  0  0  0  0
    6.3500    1.0574    0.0000 C   0  0  0  0  0  0  0  0  0  0  0  0
    5.5250    1.0574    0.0000 C   0  0  0  0  0  0  0  0  0  0  0  0
   -0.2549   -2.1195    0.0000 C   0  0  0  0  0  0  0  0  0  0  0  0
    0.2971   -2.7326    0.0000 C   0  0  0  0  0  0  0  0  0  0  0  0
    0.0422   -3.5172    0.0000 C   0  0  0  0  0  0  0  0  0  0  0  0
   -0.7648   -3.6887    0.0000 C   0  0  0  0  0  0  0  0  0  0  0  0
   -1.3168   -3.0756    0.0000 C   0  0  0  0  0  0  0  0  0  0  0  0
   -2.1238   -3.2472    0.0000 Cl  0  0  0  0  0  0  0  0  0  0  0  0
   -1.0619   -2.2910    0.0000 C   0  0  0  0  0  0  0  0  0  0  0  0
  1  2  1  0  0  0  0
  2  3  2  0  0  0  0
  3  4  1  0  0  0  0
  4  5  1  0  0  0  0
  5  6  2  0  0  0  0
  2  6  1  0  0  0  0
  6  7  1  0  0  0  0
  7  8  2  0  0  0  0
  8  9  1  0  0  0  0
  5  9  1  0  0  0  0
  8 10  1  0  0  0  0
 10 11  2  0  0  0  0
 10 12  1  0  0  0  0
 12 13  1  0  0  0  0
 13 14  1  0  0  0  0
 14 15  1  0  0  0  0
 12 15  1  0  0  0  0
 14 16  1  0  0  0  0
 16 17  2  0  0  0  0
 16 18  1  0  0  0  0
 18 19  1  0  0  0  0
 19 20  1  0  0  0  0
 20 21  1  0  0  0  0
 21 22  1  0  0  0  0
 22 23  1  0  0  0  0
 18 23  1  0  0  0  0
  4 24  1  0  0  0  0
 24 25  2  0  0  0  0
 25 26  1  0  0  0  0
 26 27  2  0  0  0  0
 27 28  1  0  0  0  0
 28 29  1  0  0  0  0
 28 30  2  0  0  0  0
 24 30  1  0  0  0  0
M  END
> <ID>
CPD_452

$$$$
CPD_457
  Mrv1822 09091914012D          

 22 22  0  0  0  0            999 V2000
    2.8579   -6.6000    0.0000 C   0  0  0  0  0  0  0  0  0  0  0  0
    3.5724   -6.1875    0.0000 C   0  0  0  0  0  0  0  0  0  0  0  0
    4.2868   -6.6000    0.0000 O   0  0  0  0  0  0  0  0  0  0  0  0
    5.0013   -6.1875    0.0000 C   0  0  0  0  0  0  0  0  0  0  0  0
    5.0013   -5.3625    0.0000 O   0  0  0  0  0  0  0  0  0  0  0  0
    5.7158   -6.6000    0.0000 C   0  0  0  0  0  0  0  0  0  0  0  0
    6.4302   -6.1875    0.0000 C   0  0  0  0  0  0  0  0  0  0  0  0
    7.1447   -6.6000    0.0000 C   0  0  0  0  0  0  0  0  0  0  0  0
    7.8592   -6.1875    0.0000 C   0  0  0  0  0  0  0  0  0  0  0  0
    8.5737   -6.6000    0.0000 C   0  0  0  0  0  0  0  0  0  0  0  0
    8.5737   -7.4250    0.0000 O   0  0  0  0  0  0  0  0  0  0  0  0
    9.2881   -6.1875    0.0000 N   0  0  0  0  0  0  0  0  0  0  0  0
   10.0026   -6.6000    0.0000 C   0  0  0  0  0  0  0  0  0  0  0  0
   10.7171   -6.1875    0.0000 C   0  0  0  0  0  0  0  0  0  0  0  0
   11.4315   -6.6000    0.0000 C   0  0  0  0  0  0  0  0  0  0  0  0
   11.4315   -7.4250    0.0000 C   0  0  0  0  0  0  0  0  0  0  0  0
   10.7171   -7.8375    0.0000 C   0  0  0  0  0  0  0  0  0  0  0  0
   10.7171   -8.6625    0.0000 F   0  0  0  0  0  0  0  0  0  0  0  0
   10.0026   -7.4250    0.0000 C   0  0  0  0  0  0  0  0  0  0  0  0
    9.2881   -7.8375    0.0000 F   0  0  0  0  0  0  0  0  0  0  0  0
   10.7171   -5.3625    0.0000 C   0  0  0  0  0  0  0  0  0  0  0  0
   10.7171   -4.5375    0.0000 N   0  0  0  0  0  0  0  0  0  0  0  0
  1  2  1  0  0  0  0
  2  3  1  0  0  0  0
  3  4  1  0  0  0  0
  4  5  2  0  0  0  0
  4  6  1  0  0  0  0
  6  7  1  0  0  0  0
  7  8  1  0  0  0  0
  8  9  1  0  0  0  0
  9 10  1  0  0  0  0
 10 11  2  0  0  0  0
 10 12  1  0  0  0  0
 12 13  1  0  0  0  0
 13 14  2  0  0  0  0
 14 15  1  0  0  0  0
 15 16  2  0  0  0  0
 16 17  1  0  0  0  0
 17 18  1  0  0  0  0
 17 19  2  0  0  0  0
 13 19  1  0  0  0  0
 19 20  1  0  0  0  0
 14 21  1  0  0  0  0
 21 22  3  0  0  0  0
M  END
> <ID>
CPD_457

$$$$
CPD_462
  Mrv1822 09091914012D          

 23 24  0  0  0  0            999 V2000
    1.4289    0.8250    0.0000 C   0  0  0  0  0  0  0  0  0  0  0  0
    1.4289    0.0000    0.0000 N   0  0  0  0  0  0  0  0  0  0  0  0
    0.7145   -0.4125    0.0000 C   0  0  0  0  0  0  0  0  0  0  0  0
    2.1434   -0.4125    0.0000 C   0  0  0  0  0  0  0  0  0  0  0  0
    2.8579    0.0000    0.0000 O   0  0  0  0  0  0  0  0  0  0  0  0
    2.1434   -1.2375    0.0000 C   0  0  0  0  0  0  0  0  0  0  0  0
    2.8579   -1.6500    0.0000 C   0  0  0  0  0  0  0  0  0  0  0  0
    2.8579   -2.4750    0.0000 N   0  0  0  0  0  0  0  0  0  0  0  0
    2.1434   -2.8875    0.0000 C   0  0  0  0  0  0  0  0  0  0  0  0
    1.4289   -2.4750    0.0000 C   0  0  0  0  0  0  0  0  0  0  0  0
    1.4289   -1.6500    0.0000 O   0  0  0  0  0  0  0  0  0  0  0  0
    3.5724   -2.8875    0.0000 C   0  0  0  0  0  0  0  0  0  0  0  0
    4.2868   -2.4750    0.0000 O   0  0  0  0  0  0  0  0  0  0  0  0
    3.5724   -3.7125    0.0000 C   0  0  0  0  0  0  0  0  0  0  0  0
    4.2868   -4.1250    0.0000 C   0  0  0  0  0  0  0  0  0  0  0  0
    4.2868   -4.9500    0.0000 N   0  0  0  0  0  0  0  0  0  0  0  0
    3.5724   -5.3625    0.0000 C   0  0  0  0  0  0  0  0  0  0  0  0
    3.5724   -6.1875    0.0000 C   0  0  0  0  0  0  0  0  0  0  0  0
    2.8579   -4.9500    0.0000 C   0  0  0  0  0  0  0  0  0  0  0  0
    2.8579   -4.1250    0.0000 C   0  0  0  0  0  0  0  0  0  0  0  0
    5.0013   -3.7125    0.0000 C   0  0  0  0  0  0  0  0  0  0  0  0
    5.7158   -4.1250    0.0000 O   0  0  0  0  0  0  0  0  0  0  0  0
    5.0013   -2.8875    0.0000 O   0  0  0  0  0  0  0  0  0  0  0  0
  1  2  1  0  0  0  0
  2  3  1  0  0  0  0
  2  4  1  0  0  0  0
  4  5  2  0  0  0  0
  4  6  1  0  0  0  0
  6  7  1  0  0  0  0
  7  8  1  0  0  0  0
  8  9  1  0  0  0  0
  9 10  1  0  0  0  0
 10 11  1  0  0  0  0
  6 11  1  0  0  0  0
  8 12  1  0  0  0  0
 12 13  2  0  0  0  0
 12 14  1  0  0  0  0
 14 15  2  0  0  0  0
 15 16  1  0  0  0  0
 16 17  2  0  0  0  0
 17 18  1  0  0  0  0
 17 19  1  0  0  0  0
 19 20  2  0  0  0  0
 14 20  1  0  0  0  0
 15 21  1  0  0  0  0
 21 22  1  0  0  0  0
 21 23  2  0  0  0  0
M  END
> <ID>
CPD_462

$$$$
CPD_467
  Mrv1822 09091914012D          

 20 20  0  0  0  0            999 V2000
   -2.1434   -4.5375    0.0000 C   0  0  0  0  0  0  0  0  0  0  0  0
   -1.4289   -4.9500    0.0000 C   0  0  0  0  0  0  0  0  0  0  0  0
   -0.7145   -4.5375    0.0000 C   0  0  0  0  0  0  0  0  0  0  0  0
    0.0000   -4.9500    0.0000 C   0  0  0  0  0  0  0  0  0  0  0  0
    0.7145   -4.5375    0.0000 C   0  0  0  0  0  0  0  0  0  0  0  0
    1.4289   -4.9500    0.0000 C   0  0  0  0  0  0  0  0  0  0  0  0
    2.1434   -4.5375    0.0000 C   0  0  0  0  0  0  0  0  0  0  0  0
    2.8579   -4.9500    0.0000 C   0  0  0  0  0  0  0  0  0  0  0  0
    2.8579   -5.7750    0.0000 O   0  0  0  0  0  0  0  0  0  0  0  0
    3.5724   -4.5375    0.0000 N   0  0  0  0  0  0  0  0  0  0  0  0
    3.5724   -3.7125    0.0000 C   0  0  0  0  0  0  0  0  0  0  0  0
    4.2868   -3.3000    0.0000 C   0  0  0  0  0  0  0  0  0  0  0  0
    5.0013   -3.7125    0.0000 O   0  0  0  0  0  0  0  0  0  0  0  0
    5.0013   -4.5375    0.0000 C   0  0  0  0  0  0  0  0  0  0  0  0
    4.2868   -4.9500    0.0000 C   0  0  0  0  0  0  0  0  0  0  0  0
    5.7158   -4.9500    0.0000 C   0  0  0  0  0  0  0  0  0  0  0  0
    6.4302   -4.5375    0.0000 O   0  0  0  0  0  0  0  0  0  0  0  0
    5.7158   -5.7750    0.0000 N   0  0  0  0  0  0  0  0  0  0  0  0
    6.4302   -6.1875    0.0000 C   0  0  0  0  0  0  0  0  0  0  0  0
    5.0013   -6.1875    0.0000 C   0  0  0  0  0  0  0  0  0  0  0  0
  1  2  1  0  0  0  0
  2  3  1  0  0  0  0
  3  4  1  0  0  0  0
  4  5  1  0  0  0  0
  5  6  1  0  0  0  0
  6  7  1  0  0  0  0
  7  8  1  0  0  0  0
  8  9  2  0  0  0  0
  8 10  1  0  0  0  0
 10 11  1  0  0  0  0
 11 12  1  0  0  0  0
 12 13  1  0  0  0  0
 13 14  1  0  0  0  0
 14 15  1  0  0  0  0
 10 15  1  0  0  0  0
 14 16  1  0  0  0  0
 16 17  2  0  0  0  0
 16 18  1  0  0  0  0
 18 19  1  0  0  0  0
 18 20  1  0  0  0  0
M  END
> <ID>
CPD_467

$$$$
CPD_472
  Mrv1822 09091914012D          

 28 30  0  0  0  0            999 V2000
    0.1067    9.7152    0.0000 C   0  0  0  0  0  0  0  0  0  0  0  0
   -0.6078    9.3027    0.0000 N   0  0  0  0  0  0  0  0  0  0  0  0
   -1.3222    9.7152    0.0000 C   0  0  0  0  0  0  0  0  0  0  0  0
   -0.6078    8.4777    0.0000 C   0  0  0  0  0  0  0  0  0  0  0  0
    0.1067    8.0652    0.0000 O   0  0  0  0  0  0  0  0  0  0  0  0
   -1.3222    8.0652    0.0000 C   0  0  0  0  0  0  0  0  0  0  0  0
   -1.3222    7.2402    0.0000 C   0  0  0  0  0  0  0  0  0  0  0  0
   -2.0367    6.8277    0.0000 N   0  0  0  0  0  0  0  0  0  0  0  0
   -2.7512    7.2402    0.0000 C   0  0  0  0  0  0  0  0  0  0  0  0
   -2.7512    8.0652    0.0000 C   0  0  0  0  0  0  0  0  0  0  0  0
   -2.0367    8.4777    0.0000 O   0  0  0  0  0  0  0  0  0  0  0  0
   -2.0367    6.0027    0.0000 C   0  0  0  0  0  0  0  0  0  0  0  0
   -1.3222    5.5902    0.0000 O   0  0  0  0  0  0  0  0  0  0  0  0
   -2.7512    5.5902    0.0000 C   0  0  0  0  0  0  0  0  0  0  0  0
   -2.7512    4.7652    0.0000 C   0  0  0  0  0  0  0  0  0  0  0  0
   -2.0367    4.3527    0.0000 C   0  0  0  0  0  0  0  0  0  0  0  0
   -3.4656    4.3527    0.0000 C   0  0  0  0  0  0  0  0  0  0  0  0
   -3.4656    3.5277    0.0000 N   0  0  0  0  0  0  0  0  0  0  0  0
   -2.7512    3.1152    0.0000 C   0  0  0  0  0  0  0  0  0  0  0  0
   -2.0367    3.5277    0.0000 O   0  0  0  0  0  0  0  0  0  0  0  0
   -2.7512    2.2902    0.0000 C   0  0  0  0  0  0  0  0  0  0  0  0
   -2.0837    1.8053    0.0000 C   0  0  0  0  0  0  0  0  0  0  0  0
   -2.3387    1.0206    0.0000 C   0  0  0  0  0  0  0  0  0  0  0  0
   -3.1637    1.0206    0.0000 C   0  0  0  0  0  0  0  0  0  0  0  0
   -3.4186    1.8053    0.0000 O   0  0  0  0  0  0  0  0  0  0  0  0
   -4.1801    4.7652    0.0000 C   0  0  0  0  0  0  0  0  0  0  0  0
   -4.1801    5.5902    0.0000 C   0  0  0  0  0  0  0  0  0  0  0  0
   -3.4656    6.0027    0.0000 C   0  0  0  0  0  0  0  0  0  0  0  0
  1  2  1  0  0  0  0
  2  3  1  0  0  0  0
  2  4  1  0  0  0  0
  4  5  2  0  0  0  0
  4  6  1  0  0  0  0
  6  7  1  0  0  0  0
  7  8  1  0  0  0  0
  8  9  1  0  0  0  0
  9 10  1  0  0  0  0
 10 11  1  0  0  0  0
  6 11  1  0  0  0  0
  8 12  1  0  0  0  0
 12 13  2  0  0  0  0
 12 14  1  0  0  0  0
 14 15  2  0  0  0  0
 15 16  1  0  0  0  0
 15 17  1  0  0  0  0
 17 18  1  0  0  0  0
 18 19  1  0  0  0  0
 19 20  2  0  0  0  0
 19 21  1  0  0  0  0
 21 22  2  0  0  0  0
 22 23  1  0  0  0  0
 23 24  2  0  0  0  0
 24 25  1  0  0  0  0
 21 25  1  0  0  0  0
 17 26  2  0  0  0  0
 26 27  1  0  0  0  0
 27 28  2  0  0  0  0
 14 28  1  0  0  0  0
M  END
> <ID>
CPD_472

$$$$
CPD_477
  Mrv1822 09091914012D          

 19 20  0  0  1  0            999 V2000
    1.4289    0.8250    0.0000 C   0  0  0  0  0  0  0  0  0  0  0  0
    1.4289    0.0000    0.0000 O   0  0  0  0  0  0  0  0  0  0  0  0
    2.1434   -0.4125    0.0000 C   0  0  0  0  0  0  0  0  0  0  0  0
    2.8579    0.0000    0.0000 O   0  0  0  0  0  0  0  0  0  0  0  0
    2.1434   -1.2375    0.0000 C   0  0  1  0  0  0  0  0  0  0  0  0
    2.8579   -1.6500    0.0000 C   0  0  0  0  0  0  0  0  0  0  0  0
    2.8579   -2.4750    0.0000 N   0  0  0  0  0  0  0  0  0  0  0  0
    2.1434   -2.8875    0.0000 C   0  0  0  0  0  0  0  0  0  0  0  0
    1.4289   -2.4750    0.0000 C   0  0  0  0  0  0  0  0  0  0  0  0
    1.4289   -1.6500    0.0000 O   0  0  0  0  0  0  0  0  0  0  0  0
    3.5724   -2.8875    0.0000 C   0  0  0  0  0  0  0  0  0  0  0  0
    4.2868   -2.4750    0.0000 O   0  0  0  0  0  0  0  0  0  0  0  0
    3.5724   -3.7125    0.0000 C   0  0  0  0  0  0  0  0  0  0  0  0
    4.2868   -4.1250    0.0000 C   0  0  0  0  0  0  0  0  0  0  0  0
    4.2868   -4.9500    0.0000 C   0  0  0  0  0  0  0  0  0  0  0  0
    3.5724   -5.3625    0.0000 C   0  0  0  0  0  0  0  0  0  0  0  0
    2.8579   -4.9500    0.0000 C   0  0  0  0  0  0  0  0  0  0  0  0
    2.8579   -4.1250    0.0000 C   0  0  0  0  0  0  0  0  0  0  0  0
    2.1434   -3.7125    0.0000 Cl  0  0  0  0  0  0  0  0  0  0  0  0
  1  2  1  0  0  0  0
  2  3  1  0  0  0  0
  3  4  2  0  0  0  0
  5  3  1  1  0  0  0
  5  6  1  0  0  0  0
  6  7  1  0  0  0  0
  7  8  1  0  0  0  0
  8  9  1  0  0  0  0
  9 10  1  0  0  0  0
  5 10  1  0  0  0  0
  7 11  1  0  0  0  0
 11 12  2  0  0  0  0
 11 13  1  0  0  0  0
 13 14  2  0  0  0  0
 14 15  1  0  0  0  0
 15 16  2  0  0  0  0
 16 17  1  0  0  0  0
 17 18  2  0  0  0  0
 13 18  1  0  0  0  0
 18 19  1  0  0  0  0
M  END
> <ID>
CPD_477

$$$$
CPD_482
  Mrv1822 09091914012D          

 22 23  0  0  1  0            999 V2000
    0.0000    0.8250    0.0000 C   0  0  0  0  0  0  0  0  0  0  0  0
    0.0000   -0.0000    0.0000 C   0  0  0  0  0  0  0  0  0  0  0  0
   -0.7145   -0.4125    0.0000 O   0  0  0  0  0  0  0  0  0  0  0  0
   -0.7145   -1.2375    0.0000 C   0  0  0  0  0  0  0  0  0  0  0  0
    0.0000   -1.6500    0.0000 N   0  0  0  0  0  0  0  0  0  0  0  0
    0.0000   -2.4750    0.0000 C   0  0  0  0  0  0  0  0  0  0  0  0
   -0.7145   -2.8875    0.0000 C   0  0  0  0  0  0  0  0  0  0  0  0
   -0.7145   -3.7125    0.0000 Br  0  0  0  0  0  0  0  0  0  0  0  0
   -1.4289   -2.4750    0.0000 C   0  0  0  0  0  0  0  0  0  0  0  0
   -1.4289   -1.6500    0.0000 C   0  0  0  0  0  0  0  0  0  0  0  0
   -2.1434   -1.2375    0.0000 C   0  0  0  0  0  0  0  0  0  0  0  0
   -2.1434   -0.4125    0.0000 O   0  0  0  0  0  0  0  0  0  0  0  0
   -2.8579   -1.6500    0.0000 N   0  0  0  0  0  0  0  0  0  0  0  0
   -2.8579   -2.4750    0.0000 C   0  0  0  0  0  0  0  0  0  0  0  0
   -3.5724   -2.8875    0.0000 C   0  0  0  0  0  0  0  0  0  0  0  0
   -4.2868   -2.4750    0.0000 O   0  0  0  0  0  0  0  0  0  0  0  0
   -4.2868   -1.6500    0.0000 C   0  0  2  0  0  0  0  0  0  0  0  0
   -3.5724   -1.2375    0.0000 C   0  0  0  0  0  0  0  0  0  0  0  0
   -5.0013   -1.2375    0.0000 C   0  0  0  0  0  0  0  0  0  0  0  0
   -5.0013   -0.4125    0.0000 O   0  0  0  0  0  0  0  0  0  0  0  0
   -5.7158   -1.6500    0.0000 O   0  0  0  0  0  0  0  0  0  0  0  0
   -5.7158   -2.4750    0.0000 C   0  0  0  0  0  0  0  0  0  0  0  0
  1  2  1  0  0  0  0
  2  3  1  0  0  0  0
  3  4  1  0  0  0  0
  4  5  2  0  0  0  0
  5  6  1  0  0  0  0
  6  7  2  0  0  0  0
  7  8  1  0  0  0  0
  7  9  1  0  0  0  0
  9 10  2  0  0  0  0
  4 10  1  0  0  0  0
 10 11  1  0  0  0  0
 11 12  2  0  0  0  0
 11 13  1  0  0  0  0
 13 14  1  0  0  0  0
 14 15  1  0  0  0  0
 15 16  1  0  0  0  0
 17 16  1  0  0  0  0
 17 18  1  0  0  0  0
 13 18  1  0  0  0  0
 17 19  1  1  0  0  0
 19 20  2  0  0  0  0
 19 21  1  0  0  0  0
 21 22  1  0  0  0  0
M  END
> <ID>
CPD_482

$$$$
CPD_487
  Mrv1822 09091914012D          

 29 31  0  0  0  0            999 V2000
   -2.8579   -4.1250    0.0000 C   0  0  0  0  0  0  0  0  0  0  0  0
   -2.8579   -3.3000    0.0000 O   0  0  0  0  0  0  0  0  0  0  0  0
   -2.1434   -2.8875    0.0000 C   0  0  0  0  0  0  0  0  0  0  0  0
   -2.1434   -2.0625    0.0000 C   0  0  0  0  0  0  0  0  0  0  0  0
   -1.4289   -1.6500    0.0000 C   0  0  0  0  0  0  0  0  0  0  0  0
   -0.7145   -2.0625    0.0000 C   0  0  0  0  0  0  0  0  0  0  0  0
   -0.7145   -2.8875    0.0000 C   0  0  0  0  0  0  0  0  0  0  0  0
   -1.4289   -3.3000    0.0000 C   0  0  0  0  0  0  0  0  0  0  0  0
    0.0000   -1.6500    0.0000 S   0  0  0  0  0  0  0  0  0  0  0  0
    0.4125   -2.3645    0.0000 O   0  0  0  0  0  0  0  0  0  0  0  0
   -0.4125   -0.9355    0.0000 O   0  0  0  0  0  0  0  0  0  0  0  0
    0.7145   -1.2375    0.0000 N   0  0  0  0  0  0  0  0  0  0  0  0
    1.4289   -1.6500    0.0000 C   0  0  0  0  0  0  0  0  0  0  0  0
    2.1434   -1.2375    0.0000 O   0  0  0  0  0  0  0  0  0  0  0  0
    1.4289   -2.4750    0.0000 C   0  0  0  0  0  0  0  0  0  0  0  0
    2.0964   -2.9599    0.0000 C   0  0  0  0  0  0  0  0  0  0  0  0
    1.8414   -3.7445    0.0000 C   0  0  0  0  0  0  0  0  0  0  0  0
    1.0164   -3.7445    0.0000 C   0  0  0  0  0  0  0  0  0  0  0  0
    0.7615   -2.9599    0.0000 C   0  0  0  0  0  0  0  0  0  0  0  0
   -0.0231   -2.7050    0.0000 O   0  0  0  0  0  0  0  0  0  0  0  0
    0.7145   -0.4125    0.0000 C   0  0  0  0  0  0  0  0  0  0  0  0
   -0.0000   -0.0000    0.0000 C   0  0  0  0  0  0  0  0  0  0  0  0
   -0.0000    0.8250    0.0000 C   0  0  0  0  0  0  0  0  0  0  0  0
   -0.7145    1.2375    0.0000 Cl  0  0  0  0  0  0  0  0  0  0  0  0
    0.7145    1.2375    0.0000 C   0  0  0  0  0  0  0  0  0  0  0  0
    1.4289    0.8250    0.0000 C   0  0  0  0  0  0  0  0  0  0  0  0
    1.4289    0.0000    0.0000 C   0  0  0  0  0  0  0  0  0  0  0  0
    2.1434   -0.4125    0.0000 O   0  0  0  0  0  0  0  0  0  0  0  0
    2.8579    0.0000    0.0000 C   0  0  0  0  0  0  0  0  0  0  0  0
  1  2  1  0  0  0  0
  2  3  1  0  0  0  0
  3  4  2  0  0  0  0
  4  5  1  0  0  0  0
  5  6  2  0  0  0  0
  6  7  1  0  0  0  0
  7  8  2  0  0  0  0
  3  8  1  0  0  0  0
  6  9  1  0  0  0  0
  9 10  2  0  0  0  0
  9 11  2  0  0  0  0
  9 12  1  0  0  0  0
 12 13  1  0  0  0  0
 13 14  2  0  0  0  0
 13 15  1  0  0  0  0
 15 16  1  0  0  0  0
 16 17  1  0  0  0  0
 17 18  1  0  0  0  0
 18 19  1  0  0  0  0
 15 19  1  0  0  0  0
 19 20  2  0  0  0  0
 12 21  1  0  0  0  0
 21 22  2  0  0  0  0
 22 23  1  0  0  0  0
 23 24  1  0  0  0  0
 23 25  2  0  0  0  0
 25 26  1  0  0  0  0
 26 27  2  0  0  0  0
 21 27  1  0  0  0  0
 27 28  1  0  0  0  0
 28 29  1  0  0  0  0
M  END
> <ID>
CPD_487

$$$$
CPD_492
  Mrv1822 09091914012D          

 24 25  0  0  0  0            999 V2000
   -2.1434   -0.4125    0.0000 C   0  0  0  0  0  0  0  0  0  0  0  0
   -1.4289   -0.8250    0.0000 O   0  0  0  0  0  0  0  0  0  0  0  0
   -1.4289   -1.6500    0.0000 C   0  0  0  0  0  0  0  0  0  0  0  0
   -0.7145   -2.0625    0.0000 C   0  0  0  0  0  0  0  0  0  0  0  0
   -0.7145   -2.8875    0.0000 C   0  0  0  0  0  0  0  0  0  0  0  0
   -1.4289   -3.3000    0.0000 C   0  0  0  0  0  0  0  0  0  0  0  0
   -2.1434   -2.8875    0.0000 C   0  0  0  0  0  0  0  0  0  0  0  0
   -2.1434   -2.0625    0.0000 C   0  0  0  0  0  0  0  0  0  0  0  0
   -1.4289   -4.1250    0.0000 S   0  0  0  0  0  0  0  0  0  0  0  0
   -2.2539   -4.1250    0.0000 O   0  0  0  0  0  0  0  0  0  0  0  0
   -0.6039   -4.1250    0.0000 O   0  0  0  0  0  0  0  0  0  0  0  0
   -1.4289   -4.9500    0.0000 N   0  0  0  0  0  0  0  0  0  0  0  0
   -2.1434   -5.3625    0.0000 C   0  0  0  0  0  0  0  0  0  0  0  0
   -2.8579   -4.9500    0.0000 C   0  0  0  0  0  0  0  0  0  0  0  0
   -2.1434   -6.1875    0.0000 O   0  0  0  0  0  0  0  0  0  0  0  0
   -0.7145   -5.3625    0.0000 C   0  0  0  0  0  0  0  0  0  0  0  0
    0.0000   -4.9500    0.0000 C   0  0  0  0  0  0  0  0  0  0  0  0
    0.7145   -5.3625    0.0000 C   0  0  0  0  0  0  0  0  0  0  0  0
    1.4289   -4.9500    0.0000 Cl  0  0  0  0  0  0  0  0  0  0  0  0
    0.7145   -6.1875    0.0000 C   0  0  0  0  0  0  0  0  0  0  0  0
   -0.0000   -6.6000    0.0000 C   0  0  0  0  0  0  0  0  0  0  0  0
   -0.7145   -6.1875    0.0000 C   0  0  0  0  0  0  0  0  0  0  0  0
   -1.4289   -6.6000    0.0000 O   0  0  0  0  0  0  0  0  0  0  0  0
   -1.4289   -7.4250    0.0000 C   0  0  0  0  0  0  0  0  0  0  0  0
  1  2  1  0  0  0  0
  2  3  1  0  0  0  0
  3  4  2  0  0  0  0
  4  5  1  0  0  0  0
  5  6  2  0  0  0  0
  6  7  1  0  0  0  0
  7  8  2  0  0  0  0
  3  8  1  0  0  0  0
  6  9  1  0  0  0  0
  9 10  2  0  0  0  0
  9 11  2  0  0  0  0
  9 12  1  0  0  0  0
 12 13  1  0  0  0  0
 13 14  1  0  0  0  0
 13 15  2  0  0  0  0
 12 16  1  0  0  0  0
 16 17  2  0  0  0  0
 17 18  1  0  0  0  0
 18 19  1  0  0  0  0
 18 20  2  0  0  0  0
 20 21  1  0  0  0  0
 21 22  2  0  0  0  0
 16 22  1  0  0  0  0
 22 23  1  0  0  0  0
 23 24  1  0  0  0  0
M  END
> <ID>
CPD_492

$$$$
CPD_497
  Mrv1822 09091914012D          

 36 39  0  0  0  0            999 V2000
    5.6091    1.4652    0.0000 C   0  0  0  0  0  0  0  0  0  0  0  0
    4.8946    1.0527    0.0000 O   0  0  0  0  0  0  0  0  0  0  0  0
    4.1801    1.4652    0.0000 C   0  0  0  0  0  0  0  0  0  0  0  0
    4.1801    2.2902    0.0000 C   0  0  0  0  0  0  0  0  0  0  0  0
    3.4656    2.7027    0.0000 C   0  0  0  0  0  0  0  0  0  0  0  0
    2.7512    2.2902    0.0000 C   0  0  0  0  0  0  0  0  0  0  0  0
    2.0367    2.7027    0.0000 Cl  0  0  0  0  0  0  0  0  0  0  0  0
    2.7512    1.4652    0.0000 C   0  0  0  0  0  0  0  0  0  0  0  0
    3.4656    1.0527    0.0000 C   0  0  0  0  0  0  0  0  0  0  0  0
    3.4656    0.2277    0.0000 N   0  0  0  0  0  0  0  0  0  0  0  0
    2.7512   -0.1848    0.0000 C   0  0  0  0  0  0  0  0  0  0  0  0
    2.0367    0.2277    0.0000 O   0  0  0  0  0  0  0  0  0  0  0  0
    2.7512   -1.0098    0.0000 C   0  0  0  0  0  0  0  0  0  0  0  0
    3.4186   -1.4947    0.0000 C   0  0  0  0  0  0  0  0  0  0  0  0
    4.2032   -1.2398    0.0000 C   0  0  0  0  0  0  0  0  0  0  0  0
    3.1637   -2.2794    0.0000 N   0  0  0  0  0  0  0  0  0  0  0  0
    3.6486   -2.9468    0.0000 C   0  0  0  0  0  0  0  0  0  0  0  0
    3.3130   -3.7005    0.0000 C   0  0  0  0  0  0  0  0  0  0  0  0
    3.7980   -4.3679    0.0000 C   0  0  0  0  0  0  0  0  0  0  0  0
    4.6230   -4.3679    0.0000 C   0  0  0  0  0  0  0  0  0  0  0  0
    4.8779   -5.1525    0.0000 C   0  0  0  0  0  0  0  0  0  0  0  0
    4.2105   -5.6375    0.0000 C   0  0  0  0  0  0  0  0  0  0  0  0
    3.5430   -5.1525    0.0000 S   0  0  0  0  0  0  0  0  0  0  0  0
    2.3387   -2.2794    0.0000 C   0  0  0  0  0  0  0  0  0  0  0  0
    1.8538   -2.9468    0.0000 O   0  0  0  0  0  0  0  0  0  0  0  0
    2.0837   -1.4947    0.0000 C   0  0  0  0  0  0  0  0  0  0  0  0
    4.1801   -0.1848    0.0000 S   0  0  0  0  0  0  0  0  0  0  0  0
    3.7676   -0.8993    0.0000 O   0  0  0  0  0  0  0  0  0  0  0  0
    4.5926    0.5297    0.0000 O   0  0  0  0  0  0  0  0  0  0  0  0
    4.8946   -0.5973    0.0000 C   0  0  0  0  0  0  0  0  0  0  0  0
    5.6091   -0.1848    0.0000 C   0  0  0  0  0  0  0  0  0  0  0  0
    6.3235   -0.5973    0.0000 C   0  0  0  0  0  0  0  0  0  0  0  0
    6.3235   -1.4223    0.0000 C   0  0  0  0  0  0  0  0  0  0  0  0
    7.0380   -1.8348    0.0000 F   0  0  0  0  0  0  0  0  0  0  0  0
    5.6091   -1.8348    0.0000 C   0  0  0  0  0  0  0  0  0  0  0  0
    4.8946   -1.4223    0.0000 C   0  0  0  0  0  0  0  0  0  0  0  0
  1  2  1  0  0  0  0
  2  3  1  0  0  0  0
  3  4  2  0  0  0  0
  4  5  1  0  0  0  0
  5  6  2  0  0  0  0
  6  7  1  0  0  0  0
  6  8  1  0  0  0  0
  8  9  2  0  0  0  0
  3  9  1  0  0  0  0
  9 10  1  0  0  0  0
 10 11  1  0  0  0  0
 11 12  2  0  0  0  0
 11 13  1  0  0  0  0
 13 14  2  0  0  0  0
 14 15  1  0  0  0  0
 14 16  1  0  0  0  0
 16 17  1  0  0  0  0
 17 18  1  0  0  0  0
 18 19  1  0  0  0  0
 19 20  2  0  0  0  0
 20 21  1  0  0  0  0
 21 22  2  0  0  0  0
 22 23  1  0  0  0  0
 19 23  1  0  0  0  0
 16 24  1  0  0  0  0
 24 25  2  0  0  0  0
 24 26  1  0  0  0  0
 13 26  1  0  0  0  0
 10 27  1  0  0  0  0
 27 28  2  0  0  0  0
 27 29  2  0  0  0  0
 27 30  1  0  0  0  0
 30 31  2  0  0  0  0
 31 32  1  0  0  0  0
 32 33  2  0  0  0  0
 33 34  1  0  0  0  0
 33 35  1  0  0  0  0
 35 36  2  0  0  0  0
 30 36  1  0  0  0  0
M  END
> <ID>
CPD_497

$$$$
CPD_502
  Mrv1822 09091914012D          

 19 20  0  0  0  0            999 V2000
    1.4289    0.8250    0.0000 C   0  0  0  0  0  0  0  0  0  0  0  0
    0.7145    0.4125    0.0000 O   0  0  0  0  0  0  0  0  0  0  0  0
    0.0000    0.8250    0.0000 C   0  0  0  0  0  0  0  0  0  0  0  0
   -0.7145    0.4125    0.0000 C   0  0  0  0  0  0  0  0  0  0  0  0
   -0.7145   -0.4125    0.0000 N   0  0  0  0  0  0  0  0  0  0  0  0
    0.0000   -0.8250    0.0000 C   0  0  0  0  0  0  0  0  0  0  0  0
   -0.0000   -1.6500    0.0000 O   0  0  0  0  0  0  0  0  0  0  0  0
    0.7145   -0.4125    0.0000 C   0  0  0  0  0  0  0  0  0  0  0  0
    1.4289   -0.8250    0.0000 C   0  0  0  0  0  0  0  0  0  0  0  0
    2.1434   -0.4125    0.0000 C   0  0  0  0  0  0  0  0  0  0  0  0
    2.8579    0.0000    0.0000 C   0  0  0  0  0  0  0  0  0  0  0  0
   -1.4289    0.8250    0.0000 C   0  0  0  0  0  0  0  0  0  0  0  0
   -1.4289    1.6500    0.0000 C   0  0  0  0  0  0  0  0  0  0  0  0
   -2.2136    1.9049    0.0000 C   0  0  0  0  0  0  0  0  0  0  0  0
   -2.6985    1.2375    0.0000 C   0  0  0  0  0  0  0  0  0  0  0  0
   -2.2136    0.5701    0.0000 C   0  0  0  0  0  0  0  0  0  0  0  0
   -2.4685   -0.2146    0.0000 O   0  0  0  0  0  0  0  0  0  0  0  0
   -0.7145    2.0625    0.0000 C   0  0  0  0  0  0  0  0  0  0  0  0
    0.0000    1.6500    0.0000 C   0  0  0  0  0  0  0  0  0  0  0  0
  1  2  1  0  0  0  0
  2  3  1  0  0  0  0
  3  4  2  0  0  0  0
  4  5  1  0  0  0  0
  5  6  1  0  0  0  0
  6  7  2  0  0  0  0
  6  8  1  0  0  0  0
  8  9  1  0  0  0  0
  9 10  1  0  0  0  0
 10 11  3  0  0  0  0
  4 12  1  0  0  0  0
 12 13  2  0  0  0  0
 13 14  1  0  0  0  0
 14 15  1  0  0  0  0
 15 16  1  0  0  0  0
 12 16  1  0  0  0  0
 16 17  2  0  0  0  0
 13 18  1  0  0  0  0
 18 19  2  0  0  0  0
  3 19  1  0  0  0  0
M  END
> <ID>
CPD_502

$$$$
CPD_507
  Mrv1822 09091914012D          

 23 25  0  0  0  0            999 V2000
    3.4990    1.1104    0.0000 C   0  0  0  0  0  0  0  0  0  0  0  0
    2.7845    0.6979    0.0000 O   0  0  0  0  0  0  0  0  0  0  0  0
    2.0701    1.1104    0.0000 C   0  0  0  0  0  0  0  0  0  0  0  0
    1.3556    0.6979    0.0000 C   0  0  0  0  0  0  0  0  0  0  0  0
    1.3556   -0.1271    0.0000 N   0  0  0  0  0  0  0  0  0  0  0  0
    2.0701   -0.5396    0.0000 C   0  0  0  0  0  0  0  0  0  0  0  0
    2.7845   -0.1271    0.0000 O   0  0  0  0  0  0  0  0  0  0  0  0
    2.0701   -1.3646    0.0000 C   0  0  0  0  0  0  0  0  0  0  0  0
    2.7845   -1.7771    0.0000 C   0  0  0  0  0  0  0  0  0  0  0  0
    3.4990   -1.3646    0.0000 Cl  0  0  0  0  0  0  0  0  0  0  0  0
    2.7845   -2.6021    0.0000 C   0  0  0  0  0  0  0  0  0  0  0  0
    2.0701   -3.0146    0.0000 C   0  0  0  0  0  0  0  0  0  0  0  0
    1.3556   -2.6021    0.0000 C   0  0  0  0  0  0  0  0  0  0  0  0
    0.6411   -3.0146    0.0000 Cl  0  0  0  0  0  0  0  0  0  0  0  0
    1.3556   -1.7771    0.0000 C   0  0  0  0  0  0  0  0  0  0  0  0
    0.6411    1.1104    0.0000 C   0  0  0  0  0  0  0  0  0  0  0  0
    0.6411    1.9354    0.0000 C   0  0  0  0  0  0  0  0  0  0  0  0
   -0.1435    2.1904    0.0000 C   0  0  0  0  0  0  0  0  0  0  0  0
   -0.6284    1.5229    0.0000 C   0  0  0  0  0  0  0  0  0  0  0  0
   -0.1435    0.8555    0.0000 C   0  0  0  0  0  0  0  0  0  0  0  0
   -0.3984    0.0709    0.0000 O   0  0  0  0  0  0  0  0  0  0  0  0
    1.3556    2.3479    0.0000 C   0  0  0  0  0  0  0  0  0  0  0  0
    2.0701    1.9354    0.0000 C   0  0  0  0  0  0  0  0  0  0  0  0
  1  2  1  0  0  0  0
  2  3  1  0  0  0  0
  3  4  2  0  0  0  0
  4  5  1  0  0  0  0
  5  6  1  0  0  0  0
  6  7  2  0  0  0  0
  6  8  1  0  0  0  0
  8  9  2  0  0  0  0
  9 10  1  0  0  0  0
  9 11  1  0  0  0  0
 11 12  2  0  0  0  0
 12 13  1  0  0  0  0
 13 14  1  0  0  0  0
 13 15  2  0  0  0  0
  8 15  1  0  0  0  0
  4 16  1  0  0  0  0
 16 17  2  0  0  0  0
 17 18  1  0  0  0  0
 18 19  1  0  0  0  0
 19 20  1  0  0  0  0
 16 20  1  0  0  0  0
 20 21  2  0  0  0  0
 17 22  1  0  0  0  0
 22 23  2  0  0  0  0
  3 23  1  0  0  0  0
M  END
> <ID>
CPD_507

$$$$
CPD_512
  Mrv1822 09091914012D          

 25 27  0  0  1  0            999 V2000
   -4.2962    0.7310    0.0000 C   0  0  0  0  0  0  0  0  0  0  0  0
   -3.8837    0.0165    0.0000 O   0  0  0  0  0  0  0  0  0  0  0  0
   -3.0587    0.0165    0.0000 C   0  0  0  0  0  0  0  0  0  0  0  0
   -2.6462    0.7310    0.0000 O   0  0  0  0  0  0  0  0  0  0  0  0
   -2.6462   -0.6979    0.0000 C   0  0  2  0  0  0  0  0  0  0  0  0
   -1.8212   -0.6979    0.0000 C   0  0  0  0  0  0  0  0  0  0  0  0
   -1.4087   -1.4124    0.0000 C   0  0  1  0  0  0  0  0  0  0  0  0
   -1.8212   -2.1269    0.0000 C   0  0  0  0  0  0  0  0  0  0  0  0
   -2.6462   -2.1269    0.0000 C   0  0  0  0  0  0  0  0  0  0  0  0
   -3.0587   -1.4124    0.0000 N   0  0  0  0  0  0  0  0  0  0  0  0
   -0.5837   -1.4124    0.0000 C   0  0  0  0  0  0  0  0  0  0  0  0
   -0.1712   -2.1269    0.0000 O   0  0  0  0  0  0  0  0  0  0  0  0
   -0.1712   -0.6979    0.0000 N   0  0  0  0  0  0  0  0  0  0  0  0
    0.6538   -0.6979    0.0000 C   0  0  0  0  0  0  0  0  0  0  0  0
    1.1387   -0.0305    0.0000 N   0  0  0  0  0  0  0  0  0  0  0  0
    1.9233   -0.2854    0.0000 N   0  0  0  0  0  0  0  0  0  0  0  0
    2.6378    0.1271    0.0000 C   0  0  0  0  0  0  0  0  0  0  0  0
    3.3523   -0.2854    0.0000 C   0  0  0  0  0  0  0  0  0  0  0  0
    3.3523   -1.1104    0.0000 C   0  0  0  0  0  0  0  0  0  0  0  0
    2.6378   -1.5229    0.0000 N   0  0  0  0  0  0  0  0  0  0  0  0
    1.9233   -1.1104    0.0000 C   0  0  0  0  0  0  0  0  0  0  0  0
    1.1387   -1.3654    0.0000 N   0  0  0  0  0  0  0  0  0  0  0  0
    4.0668    0.1271    0.0000 C   0  0  0  0  0  0  0  0  0  0  0  0
    4.0668    0.9521    0.0000 C   0  0  0  0  0  0  0  0  0  0  0  0
    4.7812   -0.2854    0.0000 C   0  0  0  0  0  0  0  0  0  0  0  0
  1  2  1  0  0  0  0
  2  3  1  0  0  0  0
  3  4  2  0  0  0  0
  5  3  1  6  0  0  0
  5  6  1  0  0  0  0
  7  6  1  0  0  0  0
  7  8  1  0  0  0  0
  8  9  1  0  0  0  0
  9 10  1  0  0  0  0
  5 10  1  0  0  0  0
  7 11  1  6  0  0  0
 11 12  2  0  0  0  0
 11 13  1  0  0  0  0
 13 14  1  0  0  0  0
 14 15  2  0  0  0  0
 15 16  1  0  0  0  0
 16 17  1  0  0  0  0
 17 18  2  0  0  0  0
 18 19  1  0  0  0  0
 19 20  2  0  0  0  0
 20 21  1  0  0  0  0
 16 21  1  0  0  0  0
 21 22  2  0  0  0  0
 14 22  1  0  0  0  0
 18 23  1  0  0  0  0
 23 24  1  0  0  0  0
 23 25  1  0  0  0  0
M  END
> <ID>
CPD_512

$$$$
CPD_517
  Mrv1822 09091914012D          

 36 39  0  0  0  0            999 V2000
   -4.7727    5.6786    0.0000 C   0  0  0  0  0  0  0  0  0  0  0  0
   -3.9477    5.6786    0.0000 C   0  0  0  0  0  0  0  0  0  0  0  0
   -3.5352    6.3931    0.0000 C   0  0  0  0  0  0  0  0  0  0  0  0
   -3.5352    4.9642    0.0000 C   0  0  0  0  0  0  0  0  0  0  0  0
   -2.7102    4.9642    0.0000 C   0  0  0  0  0  0  0  0  0  0  0  0
   -2.2977    4.2497    0.0000 N   0  0  0  0  0  0  0  0  0  0  0  0
   -1.4907    4.0782    0.0000 N   0  0  0  0  0  0  0  0  0  0  0  0
   -1.4045    3.2577    0.0000 C   0  0  0  0  0  0  0  0  0  0  0  0
   -0.6900    2.8452    0.0000 N   0  0  0  0  0  0  0  0  0  0  0  0
    0.0244    3.2577    0.0000 C   0  0  0  0  0  0  0  0  0  0  0  0
    0.0244    4.0827    0.0000 O   0  0  0  0  0  0  0  0  0  0  0  0
    0.7389    2.8452    0.0000 C   0  0  0  0  0  0  0  0  0  0  0  0
    1.4534    3.2577    0.0000 N   0  0  0  0  0  0  0  0  0  0  0  0
    1.4534    4.0827    0.0000 C   0  0  0  0  0  0  0  0  0  0  0  0
    2.1678    4.4952    0.0000 C   0  0  0  0  0  0  0  0  0  0  0  0
    2.1678    5.3202    0.0000 C   0  0  0  0  0  0  0  0  0  0  0  0
    1.4534    5.7327    0.0000 Cl  0  0  0  0  0  0  0  0  0  0  0  0
    2.8823    5.7327    0.0000 C   0  0  0  0  0  0  0  0  0  0  0  0
    3.5968    5.3202    0.0000 C   0  0  0  0  0  0  0  0  0  0  0  0
    3.5968    4.4952    0.0000 C   0  0  0  0  0  0  0  0  0  0  0  0
    2.8823    4.0827    0.0000 C   0  0  0  0  0  0  0  0  0  0  0  0
    2.8823    3.2577    0.0000 Cl  0  0  0  0  0  0  0  0  0  0  0  0
    2.1678    2.8452    0.0000 S   0  0  0  0  0  0  0  0  0  0  0  0
    1.7553    2.1307    0.0000 O   0  0  0  0  0  0  0  0  0  0  0  0
    2.5803    3.5596    0.0000 O   0  0  0  0  0  0  0  0  0  0  0  0
    2.8823    2.4327    0.0000 C   0  0  0  0  0  0  0  0  0  0  0  0
    3.5968    2.8452    0.0000 C   0  0  0  0  0  0  0  0  0  0  0  0
    4.3113    2.4327    0.0000 C   0  0  0  0  0  0  0  0  0  0  0  0
    4.3113    1.6077    0.0000 C   0  0  0  0  0  0  0  0  0  0  0  0
    5.0257    1.1952    0.0000 C   0  0  0  0  0  0  0  0  0  0  0  0
    3.5968    1.1952    0.0000 C   0  0  0  0  0  0  0  0  0  0  0  0
    2.8823    1.6077    0.0000 C   0  0  0  0  0  0  0  0  0  0  0  0
   -2.1582    2.9221    0.0000 N   0  0  0  0  0  0  0  0  0  0  0  0
   -2.7102    3.5352    0.0000 C   0  0  0  0  0  0  0  0  0  0  0  0
   -3.5352    3.5352    0.0000 N   0  0  0  0  0  0  0  0  0  0  0  0
   -3.9477    4.2497    0.0000 C   0  0  0  0  0  0  0  0  0  0  0  0
  1  2  1  0  0  0  0
  2  3  1  0  0  0  0
  2  4  1  0  0  0  0
  4  5  2  0  0  0  0
  5  6  1  0  0  0  0
  6  7  1  0  0  0  0
  7  8  2  0  0  0  0
  8  9  1  0  0  0  0
  9 10  1  0  0  0  0
 10 11  2  0  0  0  0
 10 12  1  0  0  0  0
 12 13  1  0  0  0  0
 13 14  1  0  0  0  0
 14 15  1  0  0  0  0
 15 16  2  0  0  0  0
 16 17  1  0  0  0  0
 16 18  1  0  0  0  0
 18 19  2  0  0  0  0
 19 20  1  0  0  0  0
 20 21  2  0  0  0  0
 15 21  1  0  0  0  0
 21 22  1  0  0  0  0
 13 23  1  0  0  0  0
 23 24  2  0  0  0  0
 23 25  2  0  0  0  0
 23 26  1  0  0  0  0
 26 27  2  0  0  0  0
 27 28  1  0  0  0  0
 28 29  2  0  0  0  0
 29 30  1  0  0  0  0
 29 31  1  0  0  0  0
 31 32  2  0  0  0  0
 26 32  1  0  0  0  0
  8 33  1  0  0  0  0
 33 34  2  0  0  0  0
  6 34  1  0  0  0  0
 34 35  1  0  0  0  0
 35 36  2  0  0  0  0
  4 36  1  0  0  0  0
M  END
> <ID>
CPD_517

$$$$
CPD_522
  Mrv1822 09091914012D          

 34 37  0  0  0  0            999 V2000
    2.8579   -9.0750    0.0000 C   0  0  0  0  0  0  0  0  0  0  0  0
    2.8579   -9.9000    0.0000 C   0  0  0  0  0  0  0  0  0  0  0  0
    3.5724  -10.3125    0.0000 C   0  0  0  0  0  0  0  0  0  0  0  0
    3.5724  -11.1375    0.0000 C   0  0  0  0  0  0  0  0  0  0  0  0
    2.8579  -11.5500    0.0000 C   0  0  0  0  0  0  0  0  0  0  0  0
    2.8579  -12.3750    0.0000 Cl  0  0  0  0  0  0  0  0  0  0  0  0
    2.1434  -11.1375    0.0000 C   0  0  0  0  0  0  0  0  0  0  0  0
    2.1434  -10.3125    0.0000 C   0  0  0  0  0  0  0  0  0  0  0  0
    4.2868  -11.5500    0.0000 C   0  0  0  0  0  0  0  0  0  0  0  0
    5.0013  -11.1375    0.0000 C   0  0  0  0  0  0  0  0  0  0  0  0
    5.7158  -11.5500    0.0000 N   0  0  0  0  0  0  0  0  0  0  0  0
    5.7158  -12.3750    0.0000 C   0  0  0  0  0  0  0  0  0  0  0  0
    6.4302  -12.7875    0.0000 N   0  0  0  0  0  0  0  0  0  0  0  0
    7.1447  -12.3750    0.0000 C   0  0  0  0  0  0  0  0  0  0  0  0
    7.1447  -11.5500    0.0000 O   0  0  0  0  0  0  0  0  0  0  0  0
    7.8592  -12.7875    0.0000 C   0  0  0  0  0  0  0  0  0  0  0  0
    8.5737  -12.3750    0.0000 C   0  0  0  0  0  0  0  0  0  0  0  0
    8.5737  -11.5500    0.0000 C   0  0  0  0  0  0  0  0  0  0  0  0
    9.2881  -12.7875    0.0000 N   0  0  0  0  0  0  0  0  0  0  0  0
    9.2881  -13.6125    0.0000 C   0  0  0  0  0  0  0  0  0  0  0  0
   10.0026  -14.0250    0.0000 N   0  0  0  0  0  0  0  0  0  0  0  0
   10.7171  -13.6125    0.0000 C   0  0  0  0  0  0  0  0  0  0  0  0
   11.4315  -14.0250    0.0000 C   0  0  0  0  0  0  0  0  0  0  0  0
   12.1460  -13.6125    0.0000 C   0  0  0  0  0  0  0  0  0  0  0  0
   12.8605  -14.0250    0.0000 N   0  0  0  0  0  0  0  0  0  0  0  0
   13.5749  -13.6125    0.0000 C   0  0  0  0  0  0  0  0  0  0  0  0
   14.2894  -14.0250    0.0000 C   0  0  0  0  0  0  0  0  0  0  0  0
   14.2894  -14.8500    0.0000 O   0  0  0  0  0  0  0  0  0  0  0  0
   13.5749  -15.2625    0.0000 C   0  0  0  0  0  0  0  0  0  0  0  0
   12.8605  -14.8500    0.0000 C   0  0  0  0  0  0  0  0  0  0  0  0
    8.5737  -14.0250    0.0000 N   0  0  0  0  0  0  0  0  0  0  0  0
    7.8592  -13.6125    0.0000 C   0  0  0  0  0  0  0  0  0  0  0  0
    5.0013  -12.7875    0.0000 C   0  0  0  0  0  0  0  0  0  0  0  0
    4.2868  -12.3750    0.0000 C   0  0  0  0  0  0  0  0  0  0  0  0
  1  2  1  0  0  0  0
  2  3  2  0  0  0  0
  3  4  1  0  0  0  0
  4  5  2  0  0  0  0
  5  6  1  0  0  0  0
  5  7  1  0  0  0  0
  7  8  2  0  0  0  0
  2  8  1  0  0  0  0
  4  9  1  0  0  0  0
  9 10  2  0  0  0  0
 10 11  1  0  0  0  0
 11 12  2  0  0  0  0
 12 13  1  0  0  0  0
 13 14  1  0  0  0  0
 14 15  2  0  0  0  0
 14 16  1  0  0  0  0
 16 17  2  0  0  0  0
 17 18  1  0  0  0  0
 17 19  1  0  0  0  0
 19 20  2  0  0  0  0
 20 21  1  0  0  0  0
 21 22  1  0  0  0  0
 22 23  1  0  0  0  0
 23 24  1  0  0  0  0
 24 25  1  0  0  0  0
 25 26  1  0  0  0  0
 26 27  1  0  0  0  0
 27 28  1  0  0  0  0
 28 29  1  0  0  0  0
 29 30  1  0  0  0  0
 25 30  1  0  0  0  0
 20 31  1  0  0  0  0
 31 32  2  0  0  0  0
 16 32  1  0  0  0  0
 12 33  1  0  0  0  0
 33 34  2  0  0  0  0
  9 34  1  0  0  0  0
M  END
> <ID>
CPD_522

$$$$
CPD_527
  Mrv1822 09091914012D          

 28 31  0  0  0  0            999 V2000
   -7.1447   -2.4750    0.0000 C   0  0  0  0  0  0  0  0  0  0  0  0
   -6.4302   -2.8875    0.0000 C   0  0  0  0  0  0  0  0  0  0  0  0
   -5.7158   -2.4750    0.0000 C   0  0  0  0  0  0  0  0  0  0  0  0
   -5.0013   -2.8875    0.0000 C   0  0  0  0  0  0  0  0  0  0  0  0
   -5.0013   -3.7125    0.0000 C   0  0  0  0  0  0  0  0  0  0  0  0
   -4.2868   -4.1250    0.0000 Cl  0  0  0  0  0  0  0  0  0  0  0  0
   -5.7158   -4.1250    0.0000 C   0  0  0  0  0  0  0  0  0  0  0  0
   -6.4302   -3.7125    0.0000 C   0  0  0  0  0  0  0  0  0  0  0  0
   -4.2868   -2.4750    0.0000 C   0  0  0  0  0  0  0  0  0  0  0  0
   -4.2868   -1.6500    0.0000 C   0  0  0  0  0  0  0  0  0  0  0  0
   -3.5724   -1.2375    0.0000 N   0  0  0  0  0  0  0  0  0  0  0  0
   -2.8579   -1.6500    0.0000 C   0  0  0  0  0  0  0  0  0  0  0  0
   -2.1434   -1.2375    0.0000 N   0  0  0  0  0  0  0  0  0  0  0  0
   -1.4289   -1.6500    0.0000 C   0  0  0  0  0  0  0  0  0  0  0  0
   -1.4289   -2.4750    0.0000 O   0  0  0  0  0  0  0  0  0  0  0  0
   -0.7145   -1.2375    0.0000 C   0  0  0  0  0  0  0  0  0  0  0  0
    0.0000   -1.6500    0.0000 C   0  0  0  0  0  0  0  0  0  0  0  0
    0.7145   -1.2375    0.0000 C   0  0  0  0  0  0  0  0  0  0  0  0
    0.7145   -0.4125    0.0000 C   0  0  0  0  0  0  0  0  0  0  0  0
    0.0000   -0.0000    0.0000 C   0  0  0  0  0  0  0  0  0  0  0  0
   -0.7145   -0.4125    0.0000 C   0  0  0  0  0  0  0  0  0  0  0  0
    1.4289   -0.0000    0.0000 N   0  0  0  0  0  0  0  0  0  0  0  0
    2.1434   -0.4125    0.0000 C   0  0  0  0  0  0  0  0  0  0  0  0
    2.1434   -1.2375    0.0000 C   0  0  0  0  0  0  0  0  0  0  0  0
    1.4289   -1.6500    0.0000 C   0  0  0  0  0  0  0  0  0  0  0  0
    1.4289   -2.4750    0.0000 Cl  0  0  0  0  0  0  0  0  0  0  0  0
   -2.8579   -2.4750    0.0000 C   0  0  0  0  0  0  0  0  0  0  0  0
   -3.5724   -2.8875    0.0000 C   0  0  0  0  0  0  0  0  0  0  0  0
  1  2  1  0  0  0  0
  2  3  2  0  0  0  0
  3  4  1  0  0  0  0
  4  5  2  0  0  0  0
  5  6  1  0  0  0  0
  5  7  1  0  0  0  0
  7  8  2  0  0  0  0
  2  8  1  0  0  0  0
  4  9  1  0  0  0  0
  9 10  2  0  0  0  0
 10 11  1  0  0  0  0
 11 12  2  0  0  0  0
 12 13  1  0  0  0  0
 13 14  1  0  0  0  0
 14 15  2  0  0  0  0
 14 16  1  0  0  0  0
 16 17  2  0  0  0  0
 17 18  1  0  0  0  0
 18 19  2  0  0  0  0
 19 20  1  0  0  0  0
 20 21  2  0  0  0  0
 16 21  1  0  0  0  0
 19 22  1  0  0  0  0
 22 23  2  0  0  0  0
 23 24  1  0  0  0  0
 24 25  2  0  0  0  0
 18 25  1  0  0  0  0
 25 26  1  0  0  0  0
 12 27  1  0  0  0  0
 27 28  2  0  0  0  0
  9 28  1  0  0  0  0
M  END
> <ID>
CPD_527

$$$$
CPD_532
  Mrv1822 09091914012D          

 24 26  0  0  0  0            999 V2000
    4.3935    8.0652    0.0000 C   0  0  0  0  0  0  0  0  0  0  0  0
    3.6791    8.4777    0.0000 C   0  0  0  0  0  0  0  0  0  0  0  0
    2.9646    8.0652    0.0000 C   0  0  0  0  0  0  0  0  0  0  0  0
    2.2501    8.4777    0.0000 C   0  0  0  0  0  0  0  0  0  0  0  0
    2.2501    9.3027    0.0000 C   0  0  0  0  0  0  0  0  0  0  0  0
    1.5356    9.7152    0.0000 Cl  0  0  0  0  0  0  0  0  0  0  0  0
    2.9646    9.7152    0.0000 C   0  0  0  0  0  0  0  0  0  0  0  0
    3.6791    9.3027    0.0000 C   0  0  0  0  0  0  0  0  0  0  0  0
    1.5356    8.0652    0.0000 C   0  0  0  0  0  0  0  0  0  0  0  0
    1.5356    7.2402    0.0000 C   0  0  0  0  0  0  0  0  0  0  0  0
    0.8212    6.8277    0.0000 N   0  0  0  0  0  0  0  0  0  0  0  0
    0.1067    7.2402    0.0000 C   0  0  0  0  0  0  0  0  0  0  0  0
   -0.6078    6.8277    0.0000 N   0  0  0  0  0  0  0  0  0  0  0  0
   -0.6078    6.0027    0.0000 C   0  0  0  0  0  0  0  0  0  0  0  0
    0.1067    5.5902    0.0000 O   0  0  0  0  0  0  0  0  0  0  0  0
   -1.3222    5.5902    0.0000 C   0  0  0  0  0  0  0  0  0  0  0  0
   -1.3222    4.7652    0.0000 C   0  0  0  0  0  0  0  0  0  0  0  0
   -0.6548    4.2803    0.0000 N   0  0  0  0  0  0  0  0  0  0  0  0
   -0.9097    3.4956    0.0000 C   0  0  0  0  0  0  0  0  0  0  0  0
   -1.7347    3.4956    0.0000 C   0  0  0  0  0  0  0  0  0  0  0  0
   -2.2197    2.8282    0.0000 O   0  0  0  0  0  0  0  0  0  0  0  0
   -1.9897    4.2803    0.0000 N   0  0  0  0  0  0  0  0  0  0  0  0
    0.1067    8.0652    0.0000 C   0  0  0  0  0  0  0  0  0  0  0  0
    0.8212    8.4777    0.0000 C   0  0  0  0  0  0  0  0  0  0  0  0
  1  2  1  0  0  0  0
  2  3  2  0  0  0  0
  3  4  1  0  0  0  0
  4  5  2  0  0  0  0
  5  6  1  0  0  0  0
  5  7  1  0  0  0  0
  7  8  2  0  0  0  0
  2  8  1  0  0  0  0
  4  9  1  0  0  0  0
  9 10  2  0  0  0  0
 10 11  1  0  0  0  0
 11 12  2  0  0  0  0
 12 13  1  0  0  0  0
 13 14  1  0  0  0  0
 14 15  2  0  0  0  0
 14 16  1  0  0  0  0
 16 17  1  0  0  0  0
 17 18  2  0  0  0  0
 18 19  1  0  0  0  0
 19 20  2  0  0  0  0
 20 21  1  0  0  0  0
 20 22  1  0  0  0  0
 17 22  1  0  0  0  0
 12 23  1  0  0  0  0
 23 24  2  0  0  0  0
  9 24  1  0  0  0  0
M  END
> <ID>
CPD_532

$$$$
CPD_537
  Mrv1822 09091914012D          

 26 28  0  0  0  0            999 V2000
    2.1434   -3.7125    0.0000 C   0  0  0  0  0  0  0  0  0  0  0  0
    2.8579   -4.1250    0.0000 C   0  0  0  0  0  0  0  0  0  0  0  0
    2.8579   -4.9500    0.0000 N   0  0  0  0  0  0  0  0  0  0  0  0
    3.5724   -5.3625    0.0000 C   0  0  0  0  0  0  0  0  0  0  0  0
    3.5724   -6.1875    0.0000 C   0  0  0  0  0  0  0  0  0  0  0  0
    2.8579   -6.6000    0.0000 C   0  0  0  0  0  0  0  0  0  0  0  0
    2.1434   -6.1875    0.0000 C   0  0  0  0  0  0  0  0  0  0  0  0
    2.1434   -5.3625    0.0000 C   0  0  0  0  0  0  0  0  0  0  0  0
    2.8579   -7.4250    0.0000 N   0  0  0  0  0  0  0  0  0  0  0  0
    3.5724   -7.8375    0.0000 C   0  0  0  0  0  0  0  0  0  0  0  0
    4.2868   -7.4250    0.0000 O   0  0  0  0  0  0  0  0  0  0  0  0
    3.5724   -8.6625    0.0000 C   0  0  0  0  0  0  0  0  0  0  0  0
    4.2868   -9.0750    0.0000 N   0  0  0  0  0  0  0  0  0  0  0  0
    4.2868   -9.9000    0.0000 C   0  0  0  0  0  0  0  0  0  0  0  0
    3.5724  -10.3125    0.0000 C   0  0  0  0  0  0  0  0  0  0  0  0
    2.8579   -9.9000    0.0000 C   0  0  0  0  0  0  0  0  0  0  0  0
    2.8579   -9.0750    0.0000 C   0  0  0  0  0  0  0  0  0  0  0  0
    5.0013  -10.3125    0.0000 C   0  0  0  0  0  0  0  0  0  0  0  0
    5.7158   -9.9000    0.0000 C   0  0  0  0  0  0  0  0  0  0  0  0
    6.4302   -9.4875    0.0000 N   0  0  0  0  0  0  0  0  0  0  0  0
    5.0013  -11.1375    0.0000 C   0  0  0  0  0  0  0  0  0  0  0  0
    5.7158  -11.5500    0.0000 C   0  0  0  0  0  0  0  0  0  0  0  0
    5.7158  -12.3750    0.0000 C   0  0  0  0  0  0  0  0  0  0  0  0
    5.0013  -12.7875    0.0000 C   0  0  0  0  0  0  0  0  0  0  0  0
    4.2868  -12.3750    0.0000 C   0  0  0  0  0  0  0  0  0  0  0  0
    4.2868  -11.5500    0.0000 C   0  0  0  0  0  0  0  0  0  0  0  0
  1  2  1  0  0  0  0
  2  3  1  0  0  0  0
  3  4  1  0  0  0  0
  4  5  1  0  0  0  0
  5  6  1  0  0  0  0
  6  7  1  0  0  0  0
  7  8  1  0  0  0  0
  3  8  1  0  0  0  0
  6  9  1  0  0  0  0
  9 10  1  0  0  0  0
 10 11  2  0  0  0  0
 10 12  1  0  0  0  0
 12 13  2  0  0  0  0
 13 14  1  0  0  0  0
 14 15  2  0  0  0  0
 15 16  1  0  0  0  0
 16 17  2  0  0  0  0
 12 17  1  0  0  0  0
 14 18  1  0  0  0  0
 18 19  1  0  0  0  0
 19 20  3  0  0  0  0
 18 21  1  0  0  0  0
 21 22  2  0  0  0  0
 22 23  1  0  0  0  0
 23 24  2  0  0  0  0
 24 25  1  0  0  0  0
 25 26  2  0  0  0  0
 21 26  1  0  0  0  0
M  END
> <ID>
CPD_537

$$$$
CPD_542
  Mrv1822 09091914012D          

 21 23  0  0  1  0            999 V2000
   -1.4289    4.9500    0.0000 C   0  0  0  0  0  0  0  0  0  0  0  0
   -0.7145    4.5375    0.0000 C   0  0  0  0  0  0  0  0  0  0  0  0
   -0.7145    3.7125    0.0000 N   0  0  0  0  0  0  0  0  0  0  0  0
    0.0000    3.3000    0.0000 C   0  0  0  0  0  0  0  0  0  0  0  0
    0.0000    2.4750    0.0000 C   0  0  0  0  0  0  0  0  0  0  0  0
   -0.7145    2.0625    0.0000 C   0  0  0  0  0  0  0  0  0  0  0  0
   -1.4289    2.4750    0.0000 C   0  0  0  0  0  0  0  0  0  0  0  0
   -1.4289    3.3000    0.0000 C   0  0  0  0  0  0  0  0  0  0  0  0
   -0.7145    1.2375    0.0000 N   0  0  0  0  0  0  0  0  0  0  0  0
    0.0000    0.8250    0.0000 C   0  0  0  0  0  0  0  0  0  0  0  0
    0.7145    1.2375    0.0000 O   0  0  0  0  0  0  0  0  0  0  0  0
    0.0000   -0.0000    0.0000 C   0  0  1  0  0  0  0  0  0  0  0  0
   -0.7145   -0.4125    0.0000 C   0  0  0  0  0  0  0  0  0  0  0  0
   -0.7145   -1.2375    0.0000 C   0  0  0  0  0  0  0  0  0  0  0  0
    0.0000   -1.6500    0.0000 C   0  0  0  0  0  0  0  0  0  0  0  0
    0.7145   -1.2375    0.0000 C   0  0  0  0  0  0  0  0  0  0  0  0
    0.7145   -0.4125    0.0000 C   0  0  0  0  0  0  0  0  0  0  0  0
    1.4289   -0.0000    0.0000 C   0  0  0  0  0  0  0  0  0  0  0  0
    2.1434   -0.4125    0.0000 C   0  0  0  0  0  0  0  0  0  0  0  0
    2.1434   -1.2375    0.0000 C   0  0  0  0  0  0  0  0  0  0  0  0
    1.4289   -1.6500    0.0000 C   0  0  0  0  0  0  0  0  0  0  0  0
  1  2  1  0  0  0  0
  2  3  1  0  0  0  0
  3  4  1  0  0  0  0
  4  5  1  0  0  0  0
  5  6  1  0  0  0  0
  6  7  1  0  0  0  0
  7  8  1  0  0  0  0
  3  8  1  0  0  0  0
  6  9  1  0  0  0  0
  9 10  1  0  0  0  0
 10 11  2  0  0  0  0
 12 10  1  6  0  0  0
 12 13  1  0  0  0  0
 13 14  1  0  0  0  0
 14 15  1  0  0  0  0
 15 16  1  0  0  0  0
 16 17  2  0  0  0  0
 12 17  1  0  0  0  0
 17 18  1  0  0  0  0
 18 19  2  0  0  0  0
 19 20  1  0  0  0  0
 20 21  2  0  0  0  0
 16 21  1  0  0  0  0
M  END
> <ID>
CPD_542

$$$$
CPD_547
  Mrv1822 09091914012D          

 33 35  0  0  0  0            999 V2000
    1.4507   -3.0021    0.0000 C   0  0  0  0  0  0  0  0  0  0  0  0
    2.2757   -3.0021    0.0000 C   0  0  0  0  0  0  0  0  0  0  0  0
    2.6882   -2.2877    0.0000 N   0  0  0  0  0  0  0  0  0  0  0  0
    3.5132   -2.2877    0.0000 C   0  0  0  0  0  0  0  0  0  0  0  0
    3.9257   -1.5732    0.0000 O   0  0  0  0  0  0  0  0  0  0  0  0
    3.9257   -3.0021    0.0000 C   0  0  0  0  0  0  0  0  0  0  0  0
    4.7507   -3.0021    0.0000 C   0  0  0  0  0  0  0  0  0  0  0  0
    5.1632   -3.7166    0.0000 N   0  0  0  0  0  0  0  0  0  0  0  0
    5.9859   -3.6549    0.0000 C   0  0  0  0  0  0  0  0  0  0  0  0
    6.5471   -4.2597    0.0000 C   0  0  0  0  0  0  0  0  0  0  0  0
    6.4241   -5.0755    0.0000 C   0  0  0  0  0  0  0  0  0  0  0  0
    5.7096   -5.4880    0.0000 N   0  0  0  0  0  0  0  0  0  0  0  0
    4.9417   -5.1866    0.0000 C   0  0  0  0  0  0  0  0  0  0  0  0
    4.6985   -4.3982    0.0000 C   0  0  0  0  0  0  0  0  0  0  0  0
    5.7713   -6.3107    0.0000 C   0  0  0  0  0  0  0  0  0  0  0  0
    6.5146   -6.6686    0.0000 C   0  0  0  0  0  0  0  0  0  0  0  0
    6.5762   -7.4913    0.0000 C   0  0  0  0  0  0  0  0  0  0  0  0
    5.8946   -7.9561    0.0000 C   0  0  0  0  0  0  0  0  0  0  0  0
    5.1513   -7.5981    0.0000 C   0  0  0  0  0  0  0  0  0  0  0  0
    5.0896   -6.7754    0.0000 N   0  0  0  0  0  0  0  0  0  0  0  0
    5.9562   -8.7788    0.0000 C   0  0  0  0  0  0  0  0  0  0  0  0
    6.0179   -9.6015    0.0000 F   0  0  0  0  0  0  0  0  0  0  0  0
    6.7789   -8.7171    0.0000 F   0  0  0  0  0  0  0  0  0  0  0  0
    5.1336   -8.8404    0.0000 F   0  0  0  0  0  0  0  0  0  0  0  0
    2.2757   -1.5732    0.0000 C   0  0  0  0  0  0  0  0  0  0  0  0
    1.4507   -1.5732    0.0000 C   0  0  0  0  0  0  0  0  0  0  0  0
    1.0382   -2.2877    0.0000 C   0  0  0  0  0  0  0  0  0  0  0  0
    0.6257   -3.0021    0.0000 N   0  0  0  0  0  0  0  0  0  0  0  0
    1.0382   -0.8587    0.0000 C   0  0  0  0  0  0  0  0  0  0  0  0
    0.2132   -0.8587    0.0000 Br  0  0  0  0  0  0  0  0  0  0  0  0
    1.4507   -0.1442    0.0000 C   0  0  0  0  0  0  0  0  0  0  0  0
    2.2757   -0.1442    0.0000 C   0  0  0  0  0  0  0  0  0  0  0  0
    2.6882   -0.8587    0.0000 C   0  0  0  0  0  0  0  0  0  0  0  0
  1  2  1  0  0  0  0
  2  3  1  0  0  0  0
  3  4  1  0  0  0  0
  4  5  2  0  0  0  0
  4  6  1  0  0  0  0
  6  7  1  0  0  0  0
  7  8  1  0  0  0  0
  8  9  1  0  0  0  0
  9 10  1  0  0  0  0
 10 11  1  0  0  0  0
 11 12  1  0  0  0  0
 12 13  1  0  0  0  0
 13 14  1  0  0  0  0
  8 14  1  0  0  0  0
 12 15  1  0  0  0  0
 15 16  2  0  0  0  0
 16 17  1  0  0  0  0
 17 18  2  0  0  0  0
 18 19  1  0  0  0  0
 19 20  2  0  0  0  0
 15 20  1  0  0  0  0
 18 21  1  0  0  0  0
 21 22  1  0  0  0  0
 21 23  1  0  0  0  0
 21 24  1  0  0  0  0
  3 25  1  0  0  0  0
 25 26  2  0  0  0  0
 26 27  1  0  0  0  0
 27 28  3  0  0  0  0
 26 29  1  0  0  0  0
 29 30  1  0  0  0  0
 29 31  2  0  0  0  0
 31 32  1  0  0  0  0
 32 33  2  0  0  0  0
 25 33  1  0  0  0  0
M  END
> <ID>
CPD_547

$$$$
CPD_552
  Mrv1822 09091914012D          

 24 26  0  0  0  0            999 V2000
    3.3523    4.4104    0.0000 C   0  0  0  0  0  0  0  0  0  0  0  0
    3.3523    3.5854    0.0000 C   0  0  0  0  0  0  0  0  0  0  0  0
    4.0668    3.1729    0.0000 N   0  0  0  0  0  0  0  0  0  0  0  0
    4.0668    2.3479    0.0000 C   0  0  0  0  0  0  0  0  0  0  0  0
    4.7812    1.9354    0.0000 O   0  0  0  0  0  0  0  0  0  0  0  0
    3.3523    1.9354    0.0000 C   0  0  0  0  0  0  0  0  0  0  0  0
    3.3523    1.1104    0.0000 C   0  0  0  0  0  0  0  0  0  0  0  0
    2.6378    0.6979    0.0000 C   0  0  0  0  0  0  0  0  0  0  0  0
    1.9233    1.1104    0.0000 C   0  0  0  0  0  0  0  0  0  0  0  0
    1.1387    0.8555    0.0000 N   0  0  0  0  0  0  0  0  0  0  0  0
    0.6538    1.5229    0.0000 C   0  0  0  0  0  0  0  0  0  0  0  0
   -0.1712    1.5229    0.0000 N   0  0  0  0  0  0  0  0  0  0  0  0
    1.1387    2.1904    0.0000 S   0  0  0  0  0  0  0  0  0  0  0  0
    1.9233    1.9354    0.0000 C   0  0  0  0  0  0  0  0  0  0  0  0
    2.6378    2.3479    0.0000 C   0  0  0  0  0  0  0  0  0  0  0  0
    4.7812    3.5854    0.0000 C   0  0  0  0  0  0  0  0  0  0  0  0
    4.7812    4.4104    0.0000 C   0  0  0  0  0  0  0  0  0  0  0  0
    4.0668    4.8229    0.0000 C   0  0  0  0  0  0  0  0  0  0  0  0
    3.3523    5.2354    0.0000 N   0  0  0  0  0  0  0  0  0  0  0  0
    5.4957    4.8229    0.0000 C   0  0  0  0  0  0  0  0  0  0  0  0
    5.4957    5.6479    0.0000 Br  0  0  0  0  0  0  0  0  0  0  0  0
    6.2102    4.4104    0.0000 C   0  0  0  0  0  0  0  0  0  0  0  0
    6.2102    3.5854    0.0000 C   0  0  0  0  0  0  0  0  0  0  0  0
    5.4957    3.1729    0.0000 C   0  0  0  0  0  0  0  0  0  0  0  0
  1  2  1  0  0  0  0
  2  3  1  0  0  0  0
  3  4  1  0  0  0  0
  4  5  2  0  0  0  0
  4  6  1  0  0  0  0
  6  7  2  0  0  0  0
  7  8  1  0  0  0  0
  8  9  2  0  0  0  0
  9 10  1  0  0  0  0
 10 11  2  0  0  0  0
 11 12  1  0  0  0  0
 11 13  1  0  0  0  0
 13 14  1  0  0  0  0
  9 14  1  0  0  0  0
 14 15  2  0  0  0  0
  6 15  1  0  0  0  0
  3 16  1  0  0  0  0
 16 17  2  0  0  0  0
 17 18  1  0  0  0  0
 18 19  3  0  0  0  0
 17 20  1  0  0  0  0
 20 21  1  0  0  0  0
 20 22  2  0  0  0  0
 22 23  1  0  0  0  0
 23 24  2  0  0  0  0
 16 24  1  0  0  0  0
M  END
> <ID>
CPD_552

$$$$
CPD_557
  Mrv1822 09091914012D          

 33 35  0  0  1  0            999 V2000
   -5.1852    0.7262    0.0000 C   0  0  0  0  0  0  0  0  0  0  0  0
   -4.7727    1.4407    0.0000 O   0  0  0  0  0  0  0  0  0  0  0  0
   -3.9477    1.4407    0.0000 C   0  0  0  0  0  0  0  0  0  0  0  0
   -3.5352    2.1551    0.0000 C   0  0  0  0  0  0  0  0  0  0  0  0
   -2.7102    2.1551    0.0000 C   0  0  0  0  0  0  0  0  0  0  0  0
   -2.2977    1.4407    0.0000 C   0  0  0  0  0  0  0  0  0  0  0  0
   -1.4907    1.6122    0.0000 C   0  0  0  0  0  0  0  0  0  0  0  0
   -1.4045    2.4327    0.0000 C   0  0  2  0  0  0  0  0  0  0  0  0
   -2.1582    2.7682    0.0000 N   0  0  0  0  0  0  0  0  0  0  0  0
   -0.6900    2.8452    0.0000 C   0  0  0  0  0  0  0  0  0  0  0  0
   -0.6900    3.6702    0.0000 O   0  0  0  0  0  0  0  0  0  0  0  0
    0.0244    2.4327    0.0000 N   0  0  0  0  0  0  0  0  0  0  0  0
    0.7389    2.8452    0.0000 C   0  0  0  0  0  0  0  0  0  0  0  0
    1.4534    2.4327    0.0000 C   0  0  0  0  0  0  0  0  0  0  0  0
    2.1678    2.8452    0.0000 O   0  0  0  0  0  0  0  0  0  0  0  0
    2.8823    2.4327    0.0000 C   0  0  0  0  0  0  0  0  0  0  0  0
    3.5968    2.8452    0.0000 C   0  0  0  0  0  0  0  0  0  0  0  0
    4.3113    2.4327    0.0000 O   0  0  0  0  0  0  0  0  0  0  0  0
    5.0257    2.8452    0.0000 C   0  0  0  0  0  0  0  0  0  0  0  0
    5.7402    2.4327    0.0000 C   0  0  0  0  0  0  0  0  0  0  0  0
    6.4547    2.8452    0.0000 O   0  0  0  0  0  0  0  0  0  0  0  0
    7.1691    2.4327    0.0000 C   0  0  0  0  0  0  0  0  0  0  0  0
    7.8836    2.8452    0.0000 C   0  0  0  0  0  0  0  0  0  0  0  0
    8.5981    2.4327    0.0000 O   0  0  0  0  0  0  0  0  0  0  0  0
    9.3126    2.8452    0.0000 C   0  0  0  0  0  0  0  0  0  0  0  0
   10.0270    2.4327    0.0000 C   0  0  0  0  0  0  0  0  0  0  0  0
   10.7415    2.8452    0.0000 C   0  0  0  0  0  0  0  0  0  0  0  0
   11.4560    2.4327    0.0000 C   0  0  0  0  0  0  0  0  0  0  0  0
   11.4560    1.6077    0.0000 C   0  0  0  0  0  0  0  0  0  0  0  0
   10.7415    1.1952    0.0000 C   0  0  0  0  0  0  0  0  0  0  0  0
   10.0270    1.6077    0.0000 C   0  0  0  0  0  0  0  0  0  0  0  0
   -2.7102    0.7262    0.0000 C   0  0  0  0  0  0  0  0  0  0  0  0
   -3.5352    0.7262    0.0000 C   0  0  0  0  0  0  0  0  0  0  0  0
  1  2  1  0  0  0  0
  2  3  1  0  0  0  0
  3  4  2  0  0  0  0
  4  5  1  0  0  0  0
  5  6  2  0  0  0  0
  6  7  1  0  0  0  0
  8  7  1  0  0  0  0
  8  9  1  0  0  0  0
  5  9  1  0  0  0  0
  8 10  1  6  0  0  0
 10 11  2  0  0  0  0
 10 12  1  0  0  0  0
 12 13  1  0  0  0  0
 13 14  1  0  0  0  0
 14 15  1  0  0  0  0
 15 16  1  0  0  0  0
 16 17  1  0  0  0  0
 17 18  1  0  0  0  0
 18 19  1  0  0  0  0
 19 20  1  0  0  0  0
 20 21  1  0  0  0  0
 21 22  1  0  0  0  0
 22 23  1  0  0  0  0
 23 24  1  0  0  0  0
 24 25  1  0  0  0  0
 25 26  1  0  0  0  0
 26 27  2  0  0  0  0
 27 28  1  0  0  0  0
 28 29  2  0  0  0  0
 29 30  1  0  0  0  0
 30 31  2  0  0  0  0
 26 31  1  0  0  0  0
  6 32  1  0  0  0  0
 32 33  2  0  0  0  0
  3 33  1  0  0  0  0
M  END
> <ID>
CPD_557

$$$$
CPD_562
  Mrv1822 09091914012D          

 34 36  0  0  0  0            999 V2000
   -1.4289   -3.3000    0.0000 O   0  0  0  0  0  0  0  0  0  0  0  0
   -2.1434   -2.8875    0.0000 C   0  0  0  0  0  0  0  0  0  0  0  0
   -2.1434   -2.0625    0.0000 C   0  0  0  0  0  0  0  0  0  0  0  0
   -2.8579   -1.6500    0.0000 C   0  0  0  0  0  0  0  0  0  0  0  0
   -3.5724   -2.0625    0.0000 N   0  0  0  0  0  0  0  0  0  0  0  0
   -3.5724   -2.8875    0.0000 C   0  0  0  0  0  0  0  0  0  0  0  0
   -2.8579   -3.3000    0.0000 C   0  0  0  0  0  0  0  0  0  0  0  0
   -2.8579   -4.1250    0.0000 C   0  0  0  0  0  0  0  0  0  0  0  0
   -3.5724   -4.5375    0.0000 C   0  0  0  0  0  0  0  0  0  0  0  0
   -3.5724   -5.3625    0.0000 F   0  0  0  0  0  0  0  0  0  0  0  0
   -4.2868   -4.1250    0.0000 C   0  0  0  0  0  0  0  0  0  0  0  0
   -4.2868   -3.3000    0.0000 C   0  0  0  0  0  0  0  0  0  0  0  0
   -1.4289   -1.6500    0.0000 C   0  0  0  0  0  0  0  0  0  0  0  0
   -1.4289   -0.8250    0.0000 O   0  0  0  0  0  0  0  0  0  0  0  0
   -0.7145   -2.0625    0.0000 N   0  0  0  0  0  0  0  0  0  0  0  0
    0.0000   -1.6500    0.0000 C   0  0  0  0  0  0  0  0  0  0  0  0
    0.7145   -2.0625    0.0000 C   0  0  0  0  0  0  0  0  0  0  0  0
    1.4289   -1.6500    0.0000 O   0  0  0  0  0  0  0  0  0  0  0  0
    2.1434   -2.0625    0.0000 C   0  0  0  0  0  0  0  0  0  0  0  0
    2.8579   -1.6500    0.0000 C   0  0  0  0  0  0  0  0  0  0  0  0
    3.5724   -2.0625    0.0000 O   0  0  0  0  0  0  0  0  0  0  0  0
    4.2868   -1.6500    0.0000 C   0  0  0  0  0  0  0  0  0  0  0  0
    5.0013   -2.0625    0.0000 C   0  0  0  0  0  0  0  0  0  0  0  0
    5.7158   -1.6500    0.0000 O   0  0  0  0  0  0  0  0  0  0  0  0
    6.4302   -2.0625    0.0000 C   0  0  0  0  0  0  0  0  0  0  0  0
    7.1447   -1.6500    0.0000 C   0  0  0  0  0  0  0  0  0  0  0  0
    7.8592   -2.0625    0.0000 O   0  0  0  0  0  0  0  0  0  0  0  0
    8.5737   -1.6500    0.0000 C   0  0  0  0  0  0  0  0  0  0  0  0
    9.2881   -2.0625    0.0000 C   0  0  0  0  0  0  0  0  0  0  0  0
   10.0026   -1.6500    0.0000 C   0  0  0  0  0  0  0  0  0  0  0  0
   10.7171   -2.0625    0.0000 C   0  0  0  0  0  0  0  0  0  0  0  0
   10.7171   -2.8875    0.0000 C   0  0  0  0  0  0  0  0  0  0  0  0
   10.0026   -3.3000    0.0000 C   0  0  0  0  0  0  0  0  0  0  0  0
    9.2881   -2.8875    0.0000 C   0  0  0  0  0  0  0  0  0  0  0  0
  1  2  1  0  0  0  0
  2  3  2  0  0  0  0
  3  4  1  0  0  0  0
  4  5  2  0  0  0  0
  5  6  1  0  0  0  0
  6  7  2  0  0  0  0
  2  7  1  0  0  0  0
  7  8  1  0  0  0  0
  8  9  2  0  0  0  0
  9 10  1  0  0  0  0
  9 11  1  0  0  0  0
 11 12  2  0  0  0  0
  6 12  1  0  0  0  0
  3 13  1  0  0  0  0
 13 14  2  0  0  0  0
 13 15  1  0  0  0  0
 15 16  1  0  0  0  0
 16 17  1  0  0  0  0
 17 18  1  0  0  0  0
 18 19  1  0  0  0  0
 19 20  1  0  0  0  0
 20 21  1  0  0  0  0
 21 22  1  0  0  0  0
 22 23  1  0  0  0  0
 23 24  1  0  0  0  0
 24 25  1  0  0  0  0
 25 26  1  0  0  0  0
 26 27  1  0  0  0  0
 27 28  1  0  0  0  0
 28 29  1  0  0  0  0
 29 30  2  0  0  0  0
 30 31  1  0  0  0  0
 31 32  2  0  0  0  0
 32 33  1  0  0  0  0
 33 34  2  0  0  0  0
 29 34  1  0  0  0  0
M  END
> <ID>
CPD_562

$$$$
CPD_567
  Mrv1822 09091914012D          

 35 38  0  0  0  0            999 V2000
    1.4289   -4.1250    0.0000 C   0  0  0  0  0  0  0  0  0  0  0  0
    1.4289   -4.9500    0.0000 C   0  0  0  0  0  0  0  0  0  0  0  0
    2.0964   -5.4349    0.0000 C   0  0  0  0  0  0  0  0  0  0  0  0
    1.8414   -6.2195    0.0000 S   0  0  0  0  0  0  0  0  0  0  0  0
    1.0164   -6.2195    0.0000 C   0  0  0  0  0  0  0  0  0  0  0  0
    0.7615   -5.4349    0.0000 N   0  0  0  0  0  0  0  0  0  0  0  0
    0.5315   -6.8870    0.0000 N   0  0  0  0  0  0  0  0  0  0  0  0
    0.7865   -7.6716    0.0000 C   0  0  0  0  0  0  0  0  0  0  0  0
    0.1190   -8.1565    0.0000 C   0  0  0  0  0  0  0  0  0  0  0  0
   -0.5484   -7.6716    0.0000 C   0  0  0  0  0  0  0  0  0  0  0  0
   -0.2935   -6.8870    0.0000 C   0  0  0  0  0  0  0  0  0  0  0  0
    2.8810   -5.1800    0.0000 C   0  0  0  0  0  0  0  0  0  0  0  0
    3.4941   -5.7320    0.0000 O   0  0  0  0  0  0  0  0  0  0  0  0
    3.0525   -4.3730    0.0000 N   0  0  0  0  0  0  0  0  0  0  0  0
    3.8372   -4.1181    0.0000 C   0  0  0  0  0  0  0  0  0  0  0  0
    4.0087   -3.3111    0.0000 C   0  0  0  0  0  0  0  0  0  0  0  0
    4.7933   -3.0562    0.0000 C   0  0  0  0  0  0  0  0  0  0  0  0
    4.9648   -2.2492    0.0000 F   0  0  0  0  0  0  0  0  0  0  0  0
    5.4064   -3.6082    0.0000 C   0  0  0  0  0  0  0  0  0  0  0  0
    6.1910   -3.3533    0.0000 N   0  0  0  0  0  0  0  0  0  0  0  0
    6.3625   -2.5463    0.0000 C   0  0  0  0  0  0  0  0  0  0  0  0
    7.1472   -2.2913    0.0000 C   0  0  0  0  0  0  0  0  0  0  0  0
    7.7603   -2.8434    0.0000 N   0  0  0  0  0  0  0  0  0  0  0  0
    7.5887   -3.6503    0.0000 C   0  0  0  0  0  0  0  0  0  0  0  0
    6.8041   -3.9053    0.0000 C   0  0  0  0  0  0  0  0  0  0  0  0
    8.5449   -2.5884    0.0000 C   0  0  0  0  0  0  0  0  0  0  0  0
    8.7164   -1.7815    0.0000 O   0  0  0  0  0  0  0  0  0  0  0  0
    9.1580   -3.1405    0.0000 O   0  0  0  0  0  0  0  0  0  0  0  0
    9.9426   -2.8855    0.0000 C   0  0  0  0  0  0  0  0  0  0  0  0
   10.7272   -2.6306    0.0000 C   0  0  0  0  0  0  0  0  0  0  0  0
   10.1975   -3.6702    0.0000 C   0  0  0  0  0  0  0  0  0  0  0  0
    9.6877   -2.1009    0.0000 C   0  0  0  0  0  0  0  0  0  0  0  0
    5.2349   -4.4152    0.0000 C   0  0  0  0  0  0  0  0  0  0  0  0
    5.8480   -4.9672    0.0000 F   0  0  0  0  0  0  0  0  0  0  0  0
    4.4502   -4.6701    0.0000 C   0  0  0  0  0  0  0  0  0  0  0  0
  1  2  1  0  0  0  0
  2  3  2  0  0  0  0
  3  4  1  0  0  0  0
  4  5  1  0  0  0  0
  5  6  2  0  0  0  0
  2  6  1  0  0  0  0
  5  7  1  0  0  0  0
  7  8  1  0  0  0  0
  8  9  2  0  0  0  0
  9 10  1  0  0  0  0
 10 11  2  0  0  0  0
  7 11  1  0  0  0  0
  3 12  1  0  0  0  0
 12 13  2  0  0  0  0
 12 14  1  0  0  0  0
 14 15  1  0  0  0  0
 15 16  2  0  0  0  0
 16 17  1  0  0  0  0
 17 18  1  0  0  0  0
 17 19  2  0  0  0  0
 19 20  1  0  0  0  0
 20 21  1  0  0  0  0
 21 22  1  0  0  0  0
 22 23  1  0  0  0  0
 23 24  1  0  0  0  0
 24 25  1  0  0  0  0
 20 25  1  0  0  0  0
 23 26  1  0  0  0  0
 26 27  2  0  0  0  0
 26 28  1  0  0  0  0
 28 29  1  0  0  0  0
 29 30  1  0  0  0  0
 29 31  1  0  0  0  0
 29 32  1  0  0  0  0
 19 33  1  0  0  0  0
 33 34  1  0  0  0  0
 33 35  2  0  0  0  0
 15 35  1  0  0  0  0
M  END
> <ID>
CPD_567

$$$$
CPD_572
  Mrv1822 09091914012D          

 33 35  0  0  0  0            999 V2000
    2.1434   -2.8875    0.0000 C   0  0  0  0  0  0  0  0  0  0  0  0
    2.1434   -3.7125    0.0000 C   0  0  0  0  0  0  0  0  0  0  0  0
    1.4289   -4.1250    0.0000 C   0  0  0  0  0  0  0  0  0  0  0  0
    1.4289   -4.9500    0.0000 C   0  0  0  0  0  0  0  0  0  0  0  0
    2.0964   -5.4349    0.0000 C   0  0  0  0  0  0  0  0  0  0  0  0
    1.8414   -6.2195    0.0000 S   0  0  0  0  0  0  0  0  0  0  0  0
    1.0164   -6.2195    0.0000 C   0  0  0  0  0  0  0  0  0  0  0  0
    0.5315   -6.8870    0.0000 N   0  0  0  0  0  0  0  0  0  0  0  0
    0.7615   -5.4349    0.0000 C   0  0  0  0  0  0  0  0  0  0  0  0
   -0.0231   -5.1800    0.0000 C   0  0  0  0  0  0  0  0  0  0  0  0
   -0.1946   -4.3730    0.0000 O   0  0  0  0  0  0  0  0  0  0  0  0
   -0.6362   -5.7320    0.0000 N   0  0  0  0  0  0  0  0  0  0  0  0
   -1.4208   -5.4771    0.0000 C   0  0  0  0  0  0  0  0  0  0  0  0
   -2.0339   -6.0291    0.0000 C   0  0  0  0  0  0  0  0  0  0  0  0
   -2.8186   -5.7742    0.0000 C   0  0  0  0  0  0  0  0  0  0  0  0
   -3.4316   -6.3262    0.0000 F   0  0  0  0  0  0  0  0  0  0  0  0
   -2.9901   -4.9672    0.0000 C   0  0  0  0  0  0  0  0  0  0  0  0
   -3.7747   -4.7123    0.0000 N   0  0  0  0  0  0  0  0  0  0  0  0
   -4.3878   -5.2643    0.0000 C   0  0  0  0  0  0  0  0  0  0  0  0
   -5.1724   -5.0094    0.0000 C   0  0  0  0  0  0  0  0  0  0  0  0
   -5.3439   -4.2024    0.0000 N   0  0  0  0  0  0  0  0  0  0  0  0
   -4.7308   -3.6503    0.0000 C   0  0  0  0  0  0  0  0  0  0  0  0
   -3.9462   -3.9053    0.0000 C   0  0  0  0  0  0  0  0  0  0  0  0
   -6.1286   -3.9474    0.0000 C   0  0  0  0  0  0  0  0  0  0  0  0
   -6.7417   -4.4995    0.0000 O   0  0  0  0  0  0  0  0  0  0  0  0
   -6.3001   -3.1405    0.0000 O   0  0  0  0  0  0  0  0  0  0  0  0
   -7.0847   -2.8855    0.0000 C   0  0  0  0  0  0  0  0  0  0  0  0
   -7.8693   -2.6306    0.0000 C   0  0  0  0  0  0  0  0  0  0  0  0
   -6.8298   -2.1009    0.0000 C   0  0  0  0  0  0  0  0  0  0  0  0
   -7.3397   -3.6702    0.0000 C   0  0  0  0  0  0  0  0  0  0  0  0
   -2.3770   -4.4152    0.0000 C   0  0  0  0  0  0  0  0  0  0  0  0
   -2.5485   -3.6082    0.0000 F   0  0  0  0  0  0  0  0  0  0  0  0
   -1.5924   -4.6701    0.0000 C   0  0  0  0  0  0  0  0  0  0  0  0
  1  2  1  0  0  0  0
  2  3  1  0  0  0  0
  3  4  1  0  0  0  0
  4  5  2  0  0  0  0
  5  6  1  0  0  0  0
  6  7  1  0  0  0  0
  7  8  1  0  0  0  0
  7  9  2  0  0  0  0
  4  9  1  0  0  0  0
  9 10  1  0  0  0  0
 10 11  2  0  0  0  0
 10 12  1  0  0  0  0
 12 13  1  0  0  0  0
 13 14  2  0  0  0  0
 14 15  1  0  0  0  0
 15 16  1  0  0  0  0
 15 17  2  0  0  0  0
 17 18  1  0  0  0  0
 18 19  1  0  0  0  0
 19 20  1  0  0  0  0
 20 21  1  0  0  0  0
 21 22  1  0  0  0  0
 22 23  1  0  0  0  0
 18 23  1  0  0  0  0
 21 24  1  0  0  0  0
 24 25  2  0  0  0  0
 24 26  1  0  0  0  0
 26 27  1  0  0  0  0
 27 28  1  0  0  0  0
 27 29  1  0  0  0  0
 27 30  1  0  0  0  0
 17 31  1  0  0  0  0
 31 32  1  0  0  0  0
 31 33  2  0  0  0  0
 13 33  1  0  0  0  0
M  END
> <ID>
CPD_572

$$$$
CPD_577
  Mrv1822 09091914012D          

 34 36  0  0  0  0            999 V2000
    2.1434   -3.7125    0.0000 C   0  0  0  0  0  0  0  0  0  0  0  0
    2.8579   -4.1250    0.0000 O   0  0  0  0  0  0  0  0  0  0  0  0
    2.8579   -4.9500    0.0000 C   0  0  0  0  0  0  0  0  0  0  0  0
    3.5724   -5.3625    0.0000 C   0  0  0  0  0  0  0  0  0  0  0  0
    3.5724   -6.1875    0.0000 C   0  0  0  0  0  0  0  0  0  0  0  0
    2.8579   -6.6000    0.0000 C   0  0  0  0  0  0  0  0  0  0  0  0
    2.1434   -6.1875    0.0000 C   0  0  0  0  0  0  0  0  0  0  0  0
    2.1434   -5.3625    0.0000 C   0  0  0  0  0  0  0  0  0  0  0  0
    2.8579   -7.4250    0.0000 C   0  0  0  0  0  0  0  0  0  0  0  0
    3.5724   -7.8375    0.0000 N   0  0  0  0  0  0  0  0  0  0  0  0
    2.1434   -7.8375    0.0000 C   0  0  0  0  0  0  0  0  0  0  0  0
    1.4289   -7.4250    0.0000 O   0  0  0  0  0  0  0  0  0  0  0  0
    2.1434   -8.6625    0.0000 N   0  0  0  0  0  0  0  0  0  0  0  0
    1.4289   -9.0750    0.0000 C   0  0  0  0  0  0  0  0  0  0  0  0
    1.4289   -9.9000    0.0000 C   0  0  0  0  0  0  0  0  0  0  0  0
    0.7145  -10.3125    0.0000 C   0  0  0  0  0  0  0  0  0  0  0  0
    0.7145  -11.1375    0.0000 F   0  0  0  0  0  0  0  0  0  0  0  0
    0.0000   -9.9000    0.0000 C   0  0  0  0  0  0  0  0  0  0  0  0
   -0.7145  -10.3125    0.0000 N   0  0  0  0  0  0  0  0  0  0  0  0
   -0.7145  -11.1375    0.0000 C   0  0  0  0  0  0  0  0  0  0  0  0
   -1.4289  -11.5500    0.0000 C   0  0  0  0  0  0  0  0  0  0  0  0
   -2.1434  -11.1375    0.0000 N   0  0  0  0  0  0  0  0  0  0  0  0
   -2.1434  -10.3125    0.0000 C   0  0  0  0  0  0  0  0  0  0  0  0
   -1.4289   -9.9000    0.0000 C   0  0  0  0  0  0  0  0  0  0  0  0
   -2.8579  -11.5500    0.0000 C   0  0  0  0  0  0  0  0  0  0  0  0
   -2.8579  -12.3750    0.0000 O   0  0  0  0  0  0  0  0  0  0  0  0
   -3.5724  -11.1375    0.0000 O   0  0  0  0  0  0  0  0  0  0  0  0
   -4.2868  -11.5500    0.0000 C   0  0  0  0  0  0  0  0  0  0  0  0
   -5.0013  -11.9625    0.0000 C   0  0  0  0  0  0  0  0  0  0  0  0
   -4.6993  -10.8355    0.0000 C   0  0  0  0  0  0  0  0  0  0  0  0
   -3.8743  -12.2645    0.0000 C   0  0  0  0  0  0  0  0  0  0  0  0
    0.0000   -9.0750    0.0000 C   0  0  0  0  0  0  0  0  0  0  0  0
   -0.7145   -8.6625    0.0000 F   0  0  0  0  0  0  0  0  0  0  0  0
    0.7145   -8.6625    0.0000 C   0  0  0  0  0  0  0  0  0  0  0  0
  1  2  1  0  0  0  0
  2  3  1  0  0  0  0
  3  4  2  0  0  0  0
  4  5  1  0  0  0  0
  5  6  2  0  0  0  0
  6  7  1  0  0  0  0
  7  8  2  0  0  0  0
  3  8  1  0  0  0  0
  6  9  1  0  0  0  0
  9 10  1  0  0  0  0
  9 11  1  0  0  0  0
 11 12  2  0  0  0  0
 11 13  1  0  0  0  0
 13 14  1  0  0  0  0
 14 15  2  0  0  0  0
 15 16  1  0  0  0  0
 16 17  1  0  0  0  0
 16 18  2  0  0  0  0
 18 19  1  0  0  0  0
 19 20  1  0  0  0  0
 20 21  1  0  0  0  0
 21 22  1  0  0  0  0
 22 23  1  0  0  0  0
 23 24  1  0  0  0  0
 19 24  1  0  0  0  0
 22 25  1  0  0  0  0
 25 26  2  0  0  0  0
 25 27  1  0  0  0  0
 27 28  1  0  0  0  0
 28 29  1  0  0  0  0
 28 30  1  0  0  0  0
 28 31  1  0  0  0  0
 18 32  1  0  0  0  0
 32 33  1  0  0  0  0
 32 34  2  0  0  0  0
 14 34  1  0  0  0  0
M  END
> <ID>
CPD_577

$$$$
CPD_582
  Mrv1822 09091914012D          

 35 37  0  0  1  0            999 V2000
    5.0013   -6.1875    0.0000 N   0  0  0  0  0  0  0  0  0  0  0  0
    5.0013   -5.3625    0.0000 C   0  0  2  0  0  0  0  0  0  0  0  0
    4.2868   -4.9500    0.0000 C   0  0  0  0  0  0  0  0  0  0  0  0
    3.5724   -5.3625    0.0000 C   0  0  0  0  0  0  0  0  0  0  0  0
    2.8579   -4.9500    0.0000 C   0  0  0  0  0  0  0  0  0  0  0  0
    2.8579   -4.1250    0.0000 O   0  0  0  0  0  0  0  0  0  0  0  0
    2.1434   -5.3625    0.0000 N   0  0  0  0  0  0  0  0  0  0  0  0
    2.1434   -6.1875    0.0000 C   0  0  0  0  0  0  0  0  0  0  0  0
    1.4289   -6.6000    0.0000 C   0  0  0  0  0  0  0  0  0  0  0  0
    0.7145   -6.1875    0.0000 C   0  0  0  0  0  0  0  0  0  0  0  0
    0.7145   -5.3625    0.0000 C   0  0  0  0  0  0  0  0  0  0  0  0
    1.4289   -4.9500    0.0000 C   0  0  0  0  0  0  0  0  0  0  0  0
    1.4289   -4.1250    0.0000 C   0  0  0  0  0  0  0  0  0  0  0  0
    0.7145   -3.7125    0.0000 C   0  0  0  0  0  0  0  0  0  0  0  0
    0.7145   -2.8875    0.0000 O   0  0  0  0  0  0  0  0  0  0  0  0
    0.0000   -2.4750    0.0000 C   0  0  0  0  0  0  0  0  0  0  0  0
   -0.7145   -2.8875    0.0000 C   0  0  0  0  0  0  0  0  0  0  0  0
   -1.4289   -2.4750    0.0000 C   0  0  0  0  0  0  0  0  0  0  0  0
   -1.4289   -1.6500    0.0000 C   0  0  0  0  0  0  0  0  0  0  0  0
   -0.7145   -1.2375    0.0000 C   0  0  0  0  0  0  0  0  0  0  0  0
   -0.0000   -1.6500    0.0000 N   0  0  0  0  0  0  0  0  0  0  0  0
   -2.1434   -1.2375    0.0000 C   0  0  0  0  0  0  0  0  0  0  0  0
   -2.8579   -0.8250    0.0000 F   0  0  0  0  0  0  0  0  0  0  0  0
   -2.5559   -1.9520    0.0000 F   0  0  0  0  0  0  0  0  0  0  0  0
   -1.7309   -0.5230    0.0000 F   0  0  0  0  0  0  0  0  0  0  0  0
    5.7158   -4.9500    0.0000 C   0  0  0  0  0  0  0  0  0  0  0  0
    5.7158   -4.1250    0.0000 O   0  0  0  0  0  0  0  0  0  0  0  0
    6.4302   -5.3625    0.0000 O   0  0  0  0  0  0  0  0  0  0  0  0
    7.1447   -4.9500    0.0000 C   0  0  0  0  0  0  0  0  0  0  0  0
    7.8592   -5.3625    0.0000 C   0  0  0  0  0  0  0  0  0  0  0  0
    8.5737   -4.9500    0.0000 C   0  0  0  0  0  0  0  0  0  0  0  0
    9.2881   -5.3625    0.0000 C   0  0  0  0  0  0  0  0  0  0  0  0
    9.2881   -6.1875    0.0000 C   0  0  0  0  0  0  0  0  0  0  0  0
    8.5737   -6.6000    0.0000 C   0  0  0  0  0  0  0  0  0  0  0  0
    7.8592   -6.1875    0.0000 C   0  0  0  0  0  0  0  0  0  0  0  0
  2  1  1  6  0  0  0
  2  3  1  0  0  0  0
  3  4  1  0  0  0  0
  4  5  1  0  0  0  0
  5  6  2  0  0  0  0
  5  7  1  0  0  0  0
  7  8  1  0  0  0  0
  8  9  1  0  0  0  0
  9 10  1  0  0  0  0
 10 11  1  0  0  0  0
 11 12  1  0  0  0  0
  7 12  1  0  0  0  0
 12 13  1  0  0  0  0
 13 14  1  0  0  0  0
 14 15  1  0  0  0  0
 15 16  1  0  0  0  0
 16 17  2  0  0  0  0
 17 18  1  0  0  0  0
 18 19  2  0  0  0  0
 19 20  1  0  0  0  0
 20 21  2  0  0  0  0
 16 21  1  0  0  0  0
 19 22  1  0  0  0  0
 22 23  1  0  0  0  0
 22 24  1  0  0  0  0
 22 25  1  0  0  0  0
  2 26  1  0  0  0  0
 26 27  2  0  0  0  0
 26 28  1  0  0  0  0
 28 29  1  0  0  0  0
 29 30  1  0  0  0  0
 30 31  2  0  0  0  0
 31 32  1  0  0  0  0
 32 33  2  0  0  0  0
 33 34  1  0  0  0  0
 34 35  2  0  0  0  0
 30 35  1  0  0  0  0
M  END
> <ID>
CPD_582

$$$$
CPD_587
  Mrv1822 09091914012D          

 38 41  0  0  0  0            999 V2000
   -5.0013   -6.1875    0.0000 C   0  0  0  0  0  0  0  0  0  0  0  0
   -5.7158   -6.6000    0.0000 O   0  0  0  0  0  0  0  0  0  0  0  0
   -5.7158   -7.4250    0.0000 C   0  0  0  0  0  0  0  0  0  0  0  0
   -5.0013   -7.8375    0.0000 C   0  0  0  0  0  0  0  0  0  0  0  0
   -4.2868   -7.4250    0.0000 O   0  0  0  0  0  0  0  0  0  0  0  0
   -5.0013   -8.6625    0.0000 C   0  0  0  0  0  0  0  0  0  0  0  0
   -5.7158   -9.0750    0.0000 C   0  0  0  0  0  0  0  0  0  0  0  0
   -6.4302   -8.6625    0.0000 C   0  0  0  0  0  0  0  0  0  0  0  0
   -6.4302   -7.8375    0.0000 C   0  0  0  0  0  0  0  0  0  0  0  0
   -7.1447   -9.0750    0.0000 C   0  0  0  0  0  0  0  0  0  0  0  0
   -7.1447   -9.9000    0.0000 O   0  0  0  0  0  0  0  0  0  0  0  0
   -7.8592   -8.6625    0.0000 C   0  0  0  0  0  0  0  0  0  0  0  0
   -7.8592   -7.8375    0.0000 O   0  0  0  0  0  0  0  0  0  0  0  0
   -8.5737   -9.0750    0.0000 N   0  0  0  0  0  0  0  0  0  0  0  0
   -9.2881   -8.6625    0.0000 C   0  0  0  0  0  0  0  0  0  0  0  0
  -10.0026   -9.0750    0.0000 C   0  0  0  0  0  0  0  0  0  0  0  0
  -10.0026   -9.9000    0.0000 N   0  0  0  0  0  0  0  0  0  0  0  0
  -10.7171   -8.6625    0.0000 C   0  0  0  0  0  0  0  0  0  0  0  0
  -10.7171   -7.8375    0.0000 C   0  0  0  0  0  0  0  0  0  0  0  0
  -10.0026   -7.4250    0.0000 C   0  0  0  0  0  0  0  0  0  0  0  0
   -9.2881   -7.8375    0.0000 C   0  0  0  0  0  0  0  0  0  0  0  0
  -11.4315   -7.4250    0.0000 C   0  0  0  0  0  0  0  0  0  0  0  0
  -11.4315   -6.6000    0.0000 O   0  0  0  0  0  0  0  0  0  0  0  0
  -12.1460   -7.8375    0.0000 N   0  0  0  0  0  0  0  0  0  0  0  0
  -12.8605   -7.4250    0.0000 C   0  0  0  0  0  0  0  0  0  0  0  0
  -13.5749   -7.8375    0.0000 C   0  0  0  0  0  0  0  0  0  0  0  0
  -14.2894   -7.4250    0.0000 C   0  0  0  0  0  0  0  0  0  0  0  0
  -14.2894   -6.6000    0.0000 C   0  0  0  0  0  0  0  0  0  0  0  0
  -15.0039   -6.1875    0.0000 C   0  0  0  0  0  0  0  0  0  0  0  0
  -15.7184   -6.6000    0.0000 N   0  0  0  0  0  0  0  0  0  0  0  0
  -15.7184   -7.4250    0.0000 C   0  0  0  0  0  0  0  0  0  0  0  0
  -16.4328   -7.8375    0.0000 C   0  0  0  0  0  0  0  0  0  0  0  0
  -17.1473   -7.4250    0.0000 N   0  0  0  0  0  0  0  0  0  0  0  0
  -17.8618   -7.8375    0.0000 C   0  0  0  0  0  0  0  0  0  0  0  0
  -17.1473   -6.6000    0.0000 C   0  0  0  0  0  0  0  0  0  0  0  0
  -16.4328   -6.1875    0.0000 C   0  0  0  0  0  0  0  0  0  0  0  0
  -13.5749   -6.1875    0.0000 C   0  0  0  0  0  0  0  0  0  0  0  0
  -12.8605   -6.6000    0.0000 C   0  0  0  0  0  0  0  0  0  0  0  0
  1  2  1  0  0  0  0
  2  3  1  0  0  0  0
  3  4  2  0  0  0  0
  4  5  1  0  0  0  0
  4  6  1  0  0  0  0
  6  7  2  0  0  0  0
  7  8  1  0  0  0  0
  8  9  2  0  0  0  0
  3  9  1  0  0  0  0
  8 10  1  0  0  0  0
 10 11  1  0  0  0  0
 10 12  1  0  0  0  0
 12 13  2  0  0  0  0
 12 14  1  0  0  0  0
 14 15  1  0  0  0  0
 15 16  2  0  0  0  0
 16 17  1  0  0  0  0
 16 18  1  0  0  0  0
 18 19  2  0  0  0  0
 19 20  1  0  0  0  0
 20 21  2  0  0  0  0
 15 21  1  0  0  0  0
 19 22  1  0  0  0  0
 22 23  2  0  0  0  0
 22 24  1  0  0  0  0
 24 25  1  0  0  0  0
 25 26  2  0  0  0  0
 26 27  1  0  0  0  0
 27 28  2  0  0  0  0
 28 29  1  0  0  0  0
 29 30  1  0  0  0  0
 30 31  1  0  0  0  0
 31 32  1  0  0  0  0
 32 33  1  0  0  0  0
 33 34  1  0  0  0  0
 33 35  1  0  0  0  0
 35 36  1  0  0  0  0
 30 36  1  0  0  0  0
 28 37  1  0  0  0  0
 37 38  2  0  0  0  0
 25 38  1  0  0  0  0
M  END
> <ID>
CPD_587

$$$$
CPD_592
  Mrv1822 09091914012D          

 37 40  0  0  0  0            999 V2000
   -3.5724   -5.3625    0.0000 C   0  0  0  0  0  0  0  0  0  0  0  0
   -3.5724   -6.1875    0.0000 N   0  0  0  0  0  0  0  0  0  0  0  0
   -4.2868   -6.6000    0.0000 C   0  0  0  0  0  0  0  0  0  0  0  0
   -5.0013   -6.1875    0.0000 O   0  0  0  0  0  0  0  0  0  0  0  0
   -4.2868   -7.4250    0.0000 C   0  0  0  0  0  0  0  0  0  0  0  0
   -3.5724   -7.8375    0.0000 C   0  0  0  0  0  0  0  0  0  0  0  0
   -3.5724   -8.6625    0.0000 C   0  0  0  0  0  0  0  0  0  0  0  0
   -4.2868   -9.0750    0.0000 C   0  0  0  0  0  0  0  0  0  0  0  0
   -5.0013   -8.6625    0.0000 C   0  0  0  0  0  0  0  0  0  0  0  0
   -5.0013   -7.8375    0.0000 C   0  0  0  0  0  0  0  0  0  0  0  0
   -5.7158   -7.4250    0.0000 C   0  0  0  0  0  0  0  0  0  0  0  0
   -6.4302   -7.8375    0.0000 O   0  0  0  0  0  0  0  0  0  0  0  0
   -5.7158   -6.6000    0.0000 N   0  0  0  0  0  0  0  0  0  0  0  0
   -6.4302   -6.1875    0.0000 C   0  0  0  0  0  0  0  0  0  0  0  0
   -7.1447   -6.6000    0.0000 C   0  0  0  0  0  0  0  0  0  0  0  0
   -7.1447   -7.4250    0.0000 N   0  0  0  0  0  0  0  0  0  0  0  0
   -7.8592   -6.1875    0.0000 C   0  0  0  0  0  0  0  0  0  0  0  0
   -7.8592   -5.3625    0.0000 C   0  0  0  0  0  0  0  0  0  0  0  0
   -7.1447   -4.9500    0.0000 C   0  0  0  0  0  0  0  0  0  0  0  0
   -6.4302   -5.3625    0.0000 C   0  0  0  0  0  0  0  0  0  0  0  0
   -7.1447   -4.1250    0.0000 C   0  0  0  0  0  0  0  0  0  0  0  0
   -6.4302   -3.7125    0.0000 O   0  0  0  0  0  0  0  0  0  0  0  0
   -7.8592   -3.7125    0.0000 N   0  0  0  0  0  0  0  0  0  0  0  0
   -7.8592   -2.8875    0.0000 C   0  0  0  0  0  0  0  0  0  0  0  0
   -8.5737   -2.4750    0.0000 C   0  0  0  0  0  0  0  0  0  0  0  0
   -8.5737   -1.6500    0.0000 C   0  0  0  0  0  0  0  0  0  0  0  0
   -7.8592   -1.2375    0.0000 C   0  0  0  0  0  0  0  0  0  0  0  0
   -7.8592   -0.4125    0.0000 C   0  0  0  0  0  0  0  0  0  0  0  0
   -8.5737   -0.0000    0.0000 N   0  0  0  0  0  0  0  0  0  0  0  0
   -9.2881   -0.4125    0.0000 C   0  0  0  0  0  0  0  0  0  0  0  0
  -10.0026   -0.0000    0.0000 C   0  0  0  0  0  0  0  0  0  0  0  0
  -10.0026    0.8250    0.0000 N   0  0  0  0  0  0  0  0  0  0  0  0
  -10.7171    1.2375    0.0000 C   0  0  0  0  0  0  0  0  0  0  0  0
   -9.2881    1.2375    0.0000 C   0  0  0  0  0  0  0  0  0  0  0  0
   -8.5737    0.8250    0.0000 C   0  0  0  0  0  0  0  0  0  0  0  0
   -7.1447   -1.6500    0.0000 C   0  0  0  0  0  0  0  0  0  0  0  0
   -7.1447   -2.4750    0.0000 C   0  0  0  0  0  0  0  0  0  0  0  0
  1  2  1  0  0  0  0
  2  3  1  0  0  0  0
  3  4  2  0  0  0  0
  3  5  1  0  0  0  0
  5  6  1  0  0  0  0
  6  7  1  0  0  0  0
  7  8  1  0  0  0  0
  8  9  1  0  0  0  0
  9 10  1  0  0  0  0
  5 10  1  0  0  0  0
 10 11  1  0  0  0  0
 11 12  2  0  0  0  0
 11 13  1  0  0  0  0
 13 14  1  0  0  0  0
 14 15  2  0  0  0  0
 15 16  1  0  0  0  0
 15 17  1  0  0  0  0
 17 18  2  0  0  0  0
 18 19  1  0  0  0  0
 19 20  2  0  0  0  0
 14 20  1  0  0  0  0
 19 21  1  0  0  0  0
 21 22  2  0  0  0  0
 21 23  1  0  0  0  0
 23 24  1  0  0  0  0
 24 25  2  0  0  0  0
 25 26  1  0  0  0  0
 26 27  2  0  0  0  0
 27 28  1  0  0  0  0
 28 29  1  0  0  0  0
 29 30  1  0  0  0  0
 30 31  1  0  0  0  0
 31 32  1  0  0  0  0
 32 33  1  0  0  0  0
 32 34  1  0  0  0  0
 34 35  1  0  0  0  0
 29 35  1  0  0  0  0
 27 36  1  0  0  0  0
 36 37  2  0  0  0  0
 24 37  1  0  0  0  0
M  END
> <ID>
CPD_592

$$$$
CPD_597
  Mrv1822 09091914012D          

 25 26  0  0  0  0            999 V2000
    2.1434    0.4125    0.0000 C   0  0  0  0  0  0  0  0  0  0  0  0
    2.1434   -0.4125    0.0000 C   0  0  0  0  0  0  0  0  0  0  0  0
    1.3184   -0.4125    0.0000 C   0  0  0  0  0  0  0  0  0  0  0  0
    2.9684   -0.4125    0.0000 C   0  0  0  0  0  0  0  0  0  0  0  0
    2.1434   -1.2375    0.0000 O   0  0  0  0  0  0  0  0  0  0  0  0
    1.4289   -1.6500    0.0000 C   0  0  0  0  0  0  0  0  0  0  0  0
    0.7145   -1.2375    0.0000 O   0  0  0  0  0  0  0  0  0  0  0  0
    1.4289   -2.4750    0.0000 N   0  0  0  0  0  0  0  0  0  0  0  0
    2.1434   -2.8875    0.0000 C   0  0  0  0  0  0  0  0  0  0  0  0
    2.1434   -3.7125    0.0000 C   0  0  0  0  0  0  0  0  0  0  0  0
    1.4289   -4.1250    0.0000 O   0  0  0  0  0  0  0  0  0  0  0  0
    0.7145   -3.7125    0.0000 C   0  0  0  0  0  0  0  0  0  0  0  0
    0.7145   -2.8875    0.0000 C   0  0  0  0  0  0  0  0  0  0  0  0
    0.0000   -4.1250    0.0000 C   0  0  0  0  0  0  0  0  0  0  0  0
   -0.7145   -3.7125    0.0000 O   0  0  0  0  0  0  0  0  0  0  0  0
    0.0000   -4.9500    0.0000 N   0  0  0  0  0  0  0  0  0  0  0  0
   -0.7145   -5.3625    0.0000 C   0  0  0  0  0  0  0  0  0  0  0  0
   -0.7145   -6.1875    0.0000 C   0  0  0  0  0  0  0  0  0  0  0  0
   -0.0000   -6.6000    0.0000 Cl  0  0  0  0  0  0  0  0  0  0  0  0
   -1.4289   -6.6000    0.0000 C   0  0  0  0  0  0  0  0  0  0  0  0
   -2.1434   -6.1875    0.0000 C   0  0  0  0  0  0  0  0  0  0  0  0
   -2.8579   -6.6000    0.0000 F   0  0  0  0  0  0  0  0  0  0  0  0
   -2.1434   -5.3625    0.0000 C   0  0  0  0  0  0  0  0  0  0  0  0
   -2.8579   -4.9500    0.0000 Br  0  0  0  0  0  0  0  0  0  0  0  0
   -1.4289   -4.9500    0.0000 C   0  0  0  0  0  0  0  0  0  0  0  0
  1  2  1  0  0  0  0
  2  3  1  0  0  0  0
  2  4  1  0  0  0  0
  2  5  1  0  0  0  0
  5  6  1  0  0  0  0
  6  7  2  0  0  0  0
  6  8  1  0  0  0  0
  8  9  1  0  0  0  0
  9 10  1  0  0  0  0
 10 11  1  0  0  0  0
 11 12  1  0  0  0  0
 12 13  1  0  0  0  0
  8 13  1  0  0  0  0
 12 14  1  0  0  0  0
 14 15  2  0  0  0  0
 14 16  1  0  0  0  0
 16 17  1  0  0  0  0
 17 18  2  0  0  0  0
 18 19  1  0  0  0  0
 18 20  1  0  0  0  0
 20 21  2  0  0  0  0
 21 22  1  0  0  0  0
 21 23  1  0  0  0  0
 23 24  1  0  0  0  0
 23 25  2  0  0  0  0
 17 25  1  0  0  0  0
M  END
> <ID>
CPD_597

$$$$
CPD_602
  Mrv1822 09091914012D          

 32 35  0  0  0  0            999 V2000
    4.7812    1.9354    0.0000 O   0  0  0  0  0  0  0  0  0  0  0  0
    4.0668    2.3479    0.0000 C   0  0  0  0  0  0  0  0  0  0  0  0
    4.0668    3.1729    0.0000 O   0  0  0  0  0  0  0  0  0  0  0  0
    3.3523    1.9354    0.0000 C   0  0  0  0  0  0  0  0  0  0  0  0
    3.3523    1.1104    0.0000 C   0  0  0  0  0  0  0  0  0  0  0  0
    2.6378    0.6979    0.0000 C   0  0  0  0  0  0  0  0  0  0  0  0
    1.9233    1.1104    0.0000 C   0  0  0  0  0  0  0  0  0  0  0  0
    1.1387    0.8555    0.0000 C   0  0  0  0  0  0  0  0  0  0  0  0
    0.8838    0.0709    0.0000 O   0  0  0  0  0  0  0  0  0  0  0  0
    0.6538    1.5229    0.0000 N   0  0  0  0  0  0  0  0  0  0  0  0
    1.1387    2.1904    0.0000 C   0  0  0  0  0  0  0  0  0  0  0  0
    0.8838    2.9750    0.0000 O   0  0  0  0  0  0  0  0  0  0  0  0
    1.9233    1.9354    0.0000 C   0  0  0  0  0  0  0  0  0  0  0  0
    2.6378    2.3479    0.0000 C   0  0  0  0  0  0  0  0  0  0  0  0
   -0.1712    1.5229    0.0000 C   0  0  0  0  0  0  0  0  0  0  0  0
   -0.5837    0.8085    0.0000 C   0  0  0  0  0  0  0  0  0  0  0  0
   -1.4087    0.8085    0.0000 C   0  0  0  0  0  0  0  0  0  0  0  0
   -1.8212    1.5229    0.0000 C   0  0  0  0  0  0  0  0  0  0  0  0
   -1.4087    2.2374    0.0000 C   0  0  0  0  0  0  0  0  0  0  0  0
   -0.5837    2.2374    0.0000 C   0  0  0  0  0  0  0  0  0  0  0  0
   -2.6462    1.5229    0.0000 C   0  0  0  0  0  0  0  0  0  0  0  0
   -3.0587    2.2374    0.0000 O   0  0  0  0  0  0  0  0  0  0  0  0
   -3.0587    0.8085    0.0000 N   0  0  0  0  0  0  0  0  0  0  0  0
   -3.8837    0.8085    0.0000 C   0  0  0  0  0  0  0  0  0  0  0  0
   -4.2962    0.0940    0.0000 C   0  0  0  0  0  0  0  0  0  0  0  0
   -3.8837   -0.6205    0.0000 Cl  0  0  0  0  0  0  0  0  0  0  0  0
   -5.1212    0.0940    0.0000 C   0  0  0  0  0  0  0  0  0  0  0  0
   -5.5337    0.8085    0.0000 C   0  0  0  0  0  0  0  0  0  0  0  0
   -6.3587    0.8085    0.0000 F   0  0  0  0  0  0  0  0  0  0  0  0
   -5.1212    1.5229    0.0000 C   0  0  0  0  0  0  0  0  0  0  0  0
   -5.5337    2.2374    0.0000 Br  0  0  0  0  0  0  0  0  0  0  0  0
   -4.2962    1.5229    0.0000 C   0  0  0  0  0  0  0  0  0  0  0  0
  1  2  1  0  0  0  0
  2  3  2  0  0  0  0
  2  4  1  0  0  0  0
  4  5  2  0  0  0  0
  5  6  1  0  0  0  0
  6  7  2  0  0  0  0
  7  8  1  0  0  0  0
  8  9  2  0  0  0  0
  8 10  1  0  0  0  0
 10 11  1  0  0  0  0
 11 12  2  0  0  0  0
 11 13  1  0  0  0  0
  7 13  1  0  0  0  0
 13 14  2  0  0  0  0
  4 14  1  0  0  0  0
 10 15  1  0  0  0  0
 15 16  2  0  0  0  0
 16 17  1  0  0  0  0
 17 18  2  0  0  0  0
 18 19  1  0  0  0  0
 19 20  2  0  0  0  0
 15 20  1  0  0  0  0
 18 21  1  0  0  0  0
 21 22  2  0  0  0  0
 21 23  1  0  0  0  0
 23 24  1  0  0  0  0
 24 25  2  0  0  0  0
 25 26  1  0  0  0  0
 25 27  1  0  0  0  0
 27 28  2  0  0  0  0
 28 29  1  0  0  0  0
 28 30  1  0  0  0  0
 30 31  1  0  0  0  0
 30 32  2  0  0  0  0
 24 32  1  0  0  0  0
M  END
> <ID>
CPD_602

$$$$
CPD_607
  Mrv1822 09091914012D          

 25 26  0  0  0  0            999 V2000
    2.1434   -1.2375    0.0000 C   0  0  0  0  0  0  0  0  0  0  0  0
    2.1434   -2.0625    0.0000 C   0  0  0  0  0  0  0  0  0  0  0  0
    2.8579   -2.4750    0.0000 C   0  0  0  0  0  0  0  0  0  0  0  0
    2.8579   -3.3000    0.0000 C   0  0  0  0  0  0  0  0  0  0  0  0
    2.1434   -3.7125    0.0000 C   0  0  0  0  0  0  0  0  0  0  0  0
    1.4289   -3.3000    0.0000 C   0  0  0  0  0  0  0  0  0  0  0  0
    1.4289   -2.4750    0.0000 C   0  0  0  0  0  0  0  0  0  0  0  0
    0.7145   -3.7125    0.0000 C   0  0  0  0  0  0  0  0  0  0  0  0
    0.0000   -3.3000    0.0000 O   0  0  0  0  0  0  0  0  0  0  0  0
    0.7145   -4.5375    0.0000 O   0  0  0  0  0  0  0  0  0  0  0  0
    3.5724   -2.0625    0.0000 N   0  0  0  0  0  0  0  0  0  0  0  0
    3.5724   -1.2375    0.0000 C   0  0  0  0  0  0  0  0  0  0  0  0
    4.2868   -0.8250    0.0000 O   0  0  0  0  0  0  0  0  0  0  0  0
    2.8579   -0.8250    0.0000 C   0  0  0  0  0  0  0  0  0  0  0  0
    2.8579   -0.0000    0.0000 C   0  0  0  0  0  0  0  0  0  0  0  0
    2.8579    0.8250    0.0000 N   0  0  0  0  0  0  0  0  0  0  0  0
    4.2868   -2.4750    0.0000 S   0  0  0  0  0  0  0  0  0  0  0  0
    3.8743   -3.1895    0.0000 O   0  0  0  0  0  0  0  0  0  0  0  0
    4.6993   -1.7605    0.0000 O   0  0  0  0  0  0  0  0  0  0  0  0
    5.0013   -2.8875    0.0000 C   0  0  0  0  0  0  0  0  0  0  0  0
    5.7158   -2.4750    0.0000 C   0  0  0  0  0  0  0  0  0  0  0  0
    6.4302   -2.8875    0.0000 C   0  0  0  0  0  0  0  0  0  0  0  0
    6.4302   -3.7125    0.0000 C   0  0  0  0  0  0  0  0  0  0  0  0
    5.7158   -4.1250    0.0000 C   0  0  0  0  0  0  0  0  0  0  0  0
    5.0013   -3.7125    0.0000 C   0  0  0  0  0  0  0  0  0  0  0  0
  1  2  1  0  0  0  0
  2  3  2  0  0  0  0
  3  4  1  0  0  0  0
  4  5  2  0  0  0  0
  5  6  1  0  0  0  0
  6  7  2  0  0  0  0
  2  7  1  0  0  0  0
  6  8  1  0  0  0  0
  8  9  1  0  0  0  0
  8 10  2  0  0  0  0
  3 11  1  0  0  0  0
 11 12  1  0  0  0  0
 12 13  2  0  0  0  0
 12 14  1  0  0  0  0
 14 15  1  0  0  0  0
 15 16  3  0  0  0  0
 11 17  1  0  0  0  0
 17 18  2  0  0  0  0
 17 19  2  0  0  0  0
 17 20  1  0  0  0  0
 20 21  2  0  0  0  0
 21 22  1  0  0  0  0
 22 23  2  0  0  0  0
 23 24  1  0  0  0  0
 24 25  2  0  0  0  0
 20 25  1  0  0  0  0
M  END
> <ID>
CPD_607

$$$$
CPD_612
  Mrv1822 09091914012D          

 25 26  0  0  1  0            999 V2000
   -1.4289   -2.4750    0.0000 C   0  0  0  0  0  0  0  0  0  0  0  0
   -0.7145   -2.8875    0.0000 C   0  0  1  0  0  0  0  0  0  0  0  0
   -0.7145   -3.7125    0.0000 O   0  0  0  0  0  0  0  0  0  0  0  0
    0.0000   -2.4750    0.0000 C   0  0  0  0  0  0  0  0  0  0  0  0
    0.0000   -1.6500    0.0000 O   0  0  0  0  0  0  0  0  0  0  0  0
    0.7145   -2.8875    0.0000 N   0  0  0  0  0  0  0  0  0  0  0  0
    0.7145   -3.7125    0.0000 C   0  0  0  0  0  0  0  0  0  0  0  0
    1.4289   -4.1250    0.0000 C   0  0  0  0  0  0  0  0  0  0  0  0
    2.1434   -3.7125    0.0000 C   0  0  0  0  0  0  0  0  0  0  0  0
    1.4289   -4.9500    0.0000 C   0  0  0  0  0  0  0  0  0  0  0  0
    0.7145   -5.3625    0.0000 C   0  0  0  0  0  0  0  0  0  0  0  0
    0.0000   -4.9500    0.0000 C   0  0  0  0  0  0  0  0  0  0  0  0
    0.0000   -4.1250    0.0000 C   0  0  0  0  0  0  0  0  0  0  0  0
    0.7145   -6.1875    0.0000 C   0  0  0  0  0  0  0  0  0  0  0  0
    0.0000   -6.6000    0.0000 O   0  0  0  0  0  0  0  0  0  0  0  0
    1.4289   -6.6000    0.0000 O   0  0  0  0  0  0  0  0  0  0  0  0
    1.4289   -2.4750    0.0000 S   0  0  0  0  0  0  0  0  0  0  0  0
    1.0164   -1.7605    0.0000 O   0  0  0  0  0  0  0  0  0  0  0  0
    1.8414   -3.1895    0.0000 O   0  0  0  0  0  0  0  0  0  0  0  0
    2.1434   -2.0625    0.0000 C   0  0  0  0  0  0  0  0  0  0  0  0
    2.1434   -1.2375    0.0000 C   0  0  0  0  0  0  0  0  0  0  0  0
    2.8579   -0.8250    0.0000 C   0  0  0  0  0  0  0  0  0  0  0  0
    3.5724   -1.2375    0.0000 C   0  0  0  0  0  0  0  0  0  0  0  0
    3.5724   -2.0625    0.0000 C   0  0  0  0  0  0  0  0  0  0  0  0
    2.8579   -2.4750    0.0000 C   0  0  0  0  0  0  0  0  0  0  0  0
  2  1  1  0  0  0  0
  2  3  1  6  0  0  0
  2  4  1  0  0  0  0
  4  5  2  0  0  0  0
  4  6  1  0  0  0  0
  6  7  1  0  0  0  0
  7  8  2  0  0  0  0
  8  9  1  0  0  0  0
  8 10  1  0  0  0  0
 10 11  2  0  0  0  0
 11 12  1  0  0  0  0
 12 13  2  0  0  0  0
  7 13  1  0  0  0  0
 11 14  1  0  0  0  0
 14 15  1  0  0  0  0
 14 16  2  0  0  0  0
  6 17  1  0  0  0  0
 17 18  2  0  0  0  0
 17 19  2  0  0  0  0
 17 20  1  0  0  0  0
 20 21  2  0  0  0  0
 21 22  1  0  0  0  0
 22 23  2  0  0  0  0
 23 24  1  0  0  0  0
 24 25  2  0  0  0  0
 20 25  1  0  0  0  0
M  END
> <ID>
CPD_612

$$$$
CPD_617
  Mrv1822 09091914012D          

 36 39  0  0  0  0            999 V2000
   -0.6039   -1.0461    0.0000 C   0  0  0  0  0  0  0  0  0  0  0  0
   -0.1914   -1.7605    0.0000 C   0  0  0  0  0  0  0  0  0  0  0  0
   -0.6039   -2.4750    0.0000 C   0  0  0  0  0  0  0  0  0  0  0  0
   -1.4289   -2.4750    0.0000 O   0  0  0  0  0  0  0  0  0  0  0  0
   -1.8414   -3.1895    0.0000 C   0  0  0  0  0  0  0  0  0  0  0  0
   -1.4289   -3.9039    0.0000 C   0  0  0  0  0  0  0  0  0  0  0  0
   -1.8414   -4.6184    0.0000 C   0  0  0  0  0  0  0  0  0  0  0  0
   -2.6664   -4.6184    0.0000 C   0  0  0  0  0  0  0  0  0  0  0  0
   -3.0789   -5.3329    0.0000 F   0  0  0  0  0  0  0  0  0  0  0  0
   -3.0789   -3.9039    0.0000 C   0  0  0  0  0  0  0  0  0  0  0  0
   -2.6664   -3.1895    0.0000 C   0  0  0  0  0  0  0  0  0  0  0  0
   -3.0789   -2.4750    0.0000 F   0  0  0  0  0  0  0  0  0  0  0  0
   -0.1914   -3.1895    0.0000 C   0  0  0  0  0  0  0  0  0  0  0  0
   -0.6039   -3.9039    0.0000 O   0  0  0  0  0  0  0  0  0  0  0  0
    0.6336   -3.1895    0.0000 N   0  0  0  0  0  0  0  0  0  0  0  0
    1.0461   -3.9039    0.0000 C   0  0  0  0  0  0  0  0  0  0  0  0
    1.8711   -3.9039    0.0000 C   0  0  0  0  0  0  0  0  0  0  0  0
    2.2836   -4.6184    0.0000 C   0  0  0  0  0  0  0  0  0  0  0  0
    1.8711   -5.3329    0.0000 C   0  0  0  0  0  0  0  0  0  0  0  0
    2.2836   -6.0474    0.0000 O   0  0  0  0  0  0  0  0  0  0  0  0
    3.1086   -6.0474    0.0000 C   0  0  0  0  0  0  0  0  0  0  0  0
    1.0461   -5.3329    0.0000 C   0  0  0  0  0  0  0  0  0  0  0  0
    0.6336   -4.6184    0.0000 C   0  0  0  0  0  0  0  0  0  0  0  0
    1.0461   -2.4750    0.0000 S   0  0  0  0  0  0  0  0  0  0  0  0
    1.7605   -2.8875    0.0000 O   0  0  0  0  0  0  0  0  0  0  0  0
    0.3316   -2.0625    0.0000 O   0  0  0  0  0  0  0  0  0  0  0  0
    1.4586   -1.7605    0.0000 C   0  0  0  0  0  0  0  0  0  0  0  0
    1.0461   -1.0461    0.0000 C   0  0  0  0  0  0  0  0  0  0  0  0
    1.4586   -0.3316    0.0000 N   0  0  0  0  0  0  0  0  0  0  0  0
    1.2036    0.4530    0.0000 C   0  0  0  0  0  0  0  0  0  0  0  0
    0.4190    0.7080    0.0000 C   0  0  0  0  0  0  0  0  0  0  0  0
    1.8711    0.9380    0.0000 N   0  0  0  0  0  0  0  0  0  0  0  0
    2.5385    0.4530    0.0000 N   0  0  0  0  0  0  0  0  0  0  0  0
    2.2836   -0.3316    0.0000 C   0  0  0  0  0  0  0  0  0  0  0  0
    2.6961   -1.0461    0.0000 C   0  0  0  0  0  0  0  0  0  0  0  0
    2.2836   -1.7605    0.0000 C   0  0  0  0  0  0  0  0  0  0  0  0
  1  2  1  0  0  0  0
  2  3  1  0  0  0  0
  3  4  1  0  0  0  0
  4  5  1  0  0  0  0
  5  6  2  0  0  0  0
  6  7  1  0  0  0  0
  7  8  2  0  0  0  0
  8  9  1  0  0  0  0
  8 10  1  0  0  0  0
 10 11  2  0  0  0  0
  5 11  1  0  0  0  0
 11 12  1  0  0  0  0
  3 13  1  0  0  0  0
 13 14  2  0  0  0  0
 13 15  1  0  0  0  0
 15 16  1  0  0  0  0
 16 17  2  0  0  0  0
 17 18  1  0  0  0  0
 18 19  2  0  0  0  0
 19 20  1  0  0  0  0
 20 21  1  0  0  0  0
 19 22  1  0  0  0  0
 22 23  2  0  0  0  0
 16 23  1  0  0  0  0
 15 24  1  0  0  0  0
 24 25  2  0  0  0  0
 24 26  2  0  0  0  0
 24 27  1  0  0  0  0
 27 28  2  0  0  0  0
 28 29  1  0  0  0  0
 29 30  1  0  0  0  0
 30 31  1  0  0  0  0
 30 32  2  0  0  0  0
 32 33  1  0  0  0  0
 33 34  2  0  0  0  0
 29 34  1  0  0  0  0
 34 35  1  0  0  0  0
 35 36  2  0  0  0  0
 27 36  1  0  0  0  0
M  END
> <ID>
CPD_617

$$$$
CPD_622
  Mrv1822 09091914012D          

 35 39  0  0  0  0            999 V2000
    4.2135   -3.4271    0.0000 C   0  0  0  0  0  0  0  0  0  0  0  0
    3.4990   -3.0146    0.0000 O   0  0  0  0  0  0  0  0  0  0  0  0
    3.4990   -2.1896    0.0000 C   0  0  0  0  0  0  0  0  0  0  0  0
    2.7845   -1.7771    0.0000 C   0  0  0  0  0  0  0  0  0  0  0  0
    2.7845   -0.9521    0.0000 C   0  0  0  0  0  0  0  0  0  0  0  0
    3.4990   -0.5396    0.0000 C   0  0  0  0  0  0  0  0  0  0  0  0
    4.2135   -0.9521    0.0000 C   0  0  0  0  0  0  0  0  0  0  0  0
    4.2135   -1.7771    0.0000 C   0  0  0  0  0  0  0  0  0  0  0  0
    3.4990    0.2854    0.0000 N   0  0  0  0  0  0  0  0  0  0  0  0
    4.2135    0.6979    0.0000 C   0  0  0  0  0  0  0  0  0  0  0  0
    4.2135    1.5229    0.0000 O   0  0  0  0  0  0  0  0  0  0  0  0
    4.9279    0.2854    0.0000 C   0  0  0  0  0  0  0  0  0  0  0  0
    5.7126    0.0305    0.0000 C   0  0  0  0  0  0  0  0  0  0  0  0
    5.7126   -0.7945    0.0000 C   0  0  0  0  0  0  0  0  0  0  0  0
    4.9279   -1.0494    0.0000 C   0  0  0  0  0  0  0  0  0  0  0  0
    4.4430   -0.3820    0.0000 N   0  0  0  0  0  0  0  0  0  0  0  0
    5.2635    1.0391    0.0000 C   0  0  0  0  0  0  0  0  0  0  0  0
    4.7786    1.7066    0.0000 C   0  0  0  0  0  0  0  0  0  0  0  0
    5.1141    2.4602    0.0000 C   0  0  0  0  0  0  0  0  0  0  0  0
    5.9346    2.5465    0.0000 C   0  0  0  0  0  0  0  0  0  0  0  0
    6.4195    1.8790    0.0000 C   0  0  0  0  0  0  0  0  0  0  0  0
    6.0840    1.1254    0.0000 C   0  0  0  0  0  0  0  0  0  0  0  0
    2.7845    0.6979    0.0000 S   0  0  0  0  0  0  0  0  0  0  0  0
    3.1970    1.4124    0.0000 O   0  0  0  0  0  0  0  0  0  0  0  0
    2.3720   -0.0165    0.0000 O   0  0  0  0  0  0  0  0  0  0  0  0
    2.0701    1.1104    0.0000 C   0  0  0  0  0  0  0  0  0  0  0  0
    1.3556    0.6979    0.0000 C   0  0  0  0  0  0  0  0  0  0  0  0
    0.6411    1.1104    0.0000 N   0  0  0  0  0  0  0  0  0  0  0  0
   -0.1435    0.8555    0.0000 C   0  0  0  0  0  0  0  0  0  0  0  0
   -0.3984    0.0709    0.0000 C   0  0  0  0  0  0  0  0  0  0  0  0
   -0.6284    1.5229    0.0000 N   0  0  0  0  0  0  0  0  0  0  0  0
   -0.1435    2.1904    0.0000 N   0  0  0  0  0  0  0  0  0  0  0  0
    0.6411    1.9354    0.0000 C   0  0  0  0  0  0  0  0  0  0  0  0
    1.3556    2.3479    0.0000 C   0  0  0  0  0  0  0  0  0  0  0  0
    2.0701    1.9354    0.0000 C   0  0  0  0  0  0  0  0  0  0  0  0
  1  2  1  0  0  0  0
  2  3  1  0  0  0  0
  3  4  2  0  0  0  0
  4  5  1  0  0  0  0
  5  6  2  0  0  0  0
  6  7  1  0  0  0  0
  7  8  2  0  0  0  0
  3  8  1  0  0  0  0
  6  9  1  0  0  0  0
  9 10  1  0  0  0  0
 10 11  2  0  0  0  0
 10 12  1  0  0  0  0
 12 13  1  0  0  0  0
 13 14  1  0  0  0  0
 14 15  1  0  0  0  0
 15 16  1  0  0  0  0
 12 16  1  0  0  0  0
 12 17  1  0  0  0  0
 17 18  2  0  0  0  0
 18 19  1  0  0  0  0
 19 20  2  0  0  0  0
 20 21  1  0  0  0  0
 21 22  2  0  0  0  0
 17 22  1  0  0  0  0
  9 23  1  0  0  0  0
 23 24  2  0  0  0  0
 23 25  2  0  0  0  0
 23 26  1  0  0  0  0
 26 27  2  0  0  0  0
 27 28  1  0  0  0  0
 28 29  1  0  0  0  0
 29 30  1  0  0  0  0
 29 31  2  0  0  0  0
 31 32  1  0  0  0  0
 32 33  2  0  0  0  0
 28 33  1  0  0  0  0
 33 34  1  0  0  0  0
 34 35  2  0  0  0  0
 26 35  1  0  0  0  0
M  END
> <ID>
CPD_622

$$$$
CPD_627
  Mrv1822 09091914012D          

 31 34  0  0  0  0            999 V2000
    4.9279   -2.1896    0.0000 C   0  0  0  0  0  0  0  0  0  0  0  0
    4.2135   -1.7771    0.0000 C   0  0  0  0  0  0  0  0  0  0  0  0
    3.4990   -2.1896    0.0000 C   0  0  0  0  0  0  0  0  0  0  0  0
    2.7845   -1.7771    0.0000 C   0  0  0  0  0  0  0  0  0  0  0  0
    2.7845   -0.9521    0.0000 C   0  0  0  0  0  0  0  0  0  0  0  0
    3.4990   -0.5396    0.0000 C   0  0  0  0  0  0  0  0  0  0  0  0
    4.2135   -0.9521    0.0000 C   0  0  0  0  0  0  0  0  0  0  0  0
    3.4990    0.2854    0.0000 N   0  0  0  0  0  0  0  0  0  0  0  0
    4.2135    0.6979    0.0000 C   0  0  0  0  0  0  0  0  0  0  0  0
    4.2135    1.5229    0.0000 O   0  0  0  0  0  0  0  0  0  0  0  0
    4.9279    0.2854    0.0000 C   0  0  0  0  0  0  0  0  0  0  0  0
    5.6424    0.6979    0.0000 C   0  0  0  0  0  0  0  0  0  0  0  0
    6.3569    0.2854    0.0000 C   0  0  0  0  0  0  0  0  0  0  0  0
    7.0714    0.6979    0.0000 Cl  0  0  0  0  0  0  0  0  0  0  0  0
    6.3569   -0.5396    0.0000 C   0  0  0  0  0  0  0  0  0  0  0  0
    7.0714   -0.9521    0.0000 O   0  0  0  0  0  0  0  0  0  0  0  0
    5.6424   -0.9521    0.0000 C   0  0  0  0  0  0  0  0  0  0  0  0
    5.6424   -1.7771    0.0000 F   0  0  0  0  0  0  0  0  0  0  0  0
    4.9279   -0.5396    0.0000 C   0  0  0  0  0  0  0  0  0  0  0  0
    2.7845    0.6979    0.0000 S   0  0  0  0  0  0  0  0  0  0  0  0
    3.1970    1.4124    0.0000 O   0  0  0  0  0  0  0  0  0  0  0  0
    2.3720   -0.0165    0.0000 O   0  0  0  0  0  0  0  0  0  0  0  0
    2.0701    1.1104    0.0000 C   0  0  0  0  0  0  0  0  0  0  0  0
    1.3556    0.6979    0.0000 C   0  0  0  0  0  0  0  0  0  0  0  0
    0.6411    1.1104    0.0000 N   0  0  0  0  0  0  0  0  0  0  0  0
   -0.1435    0.8555    0.0000 C   0  0  0  0  0  0  0  0  0  0  0  0
   -0.6284    1.5229    0.0000 N   0  0  0  0  0  0  0  0  0  0  0  0
   -0.1435    2.1904    0.0000 N   0  0  0  0  0  0  0  0  0  0  0  0
    0.6411    1.9354    0.0000 C   0  0  0  0  0  0  0  0  0  0  0  0
    1.3556    2.3479    0.0000 C   0  0  0  0  0  0  0  0  0  0  0  0
    2.0701    1.9354    0.0000 C   0  0  0  0  0  0  0  0  0  0  0  0
  1  2  1  0  0  0  0
  2  3  2  0  0  0  0
  3  4  1  0  0  0  0
  4  5  2  0  0  0  0
  5  6  1  0  0  0  0
  6  7  2  0  0  0  0
  2  7  1  0  0  0  0
  6  8  1  0  0  0  0
  8  9  1  0  0  0  0
  9 10  2  0  0  0  0
  9 11  1  0  0  0  0
 11 12  2  0  0  0  0
 12 13  1  0  0  0  0
 13 14  1  0  0  0  0
 13 15  2  0  0  0  0
 15 16  1  0  0  0  0
 15 17  1  0  0  0  0
 17 18  1  0  0  0  0
 17 19  2  0  0  0  0
 11 19  1  0  0  0  0
  8 20  1  0  0  0  0
 20 21  2  0  0  0  0
 20 22  2  0  0  0  0
 20 23  1  0  0  0  0
 23 24  2  0  0  0  0
 24 25  1  0  0  0  0
 25 26  1  0  0  0  0
 26 27  2  0  0  0  0
 27 28  1  0  0  0  0
 28 29  2  0  0  0  0
 25 29  1  0  0  0  0
 29 30  1  0  0  0  0
 30 31  2  0  0  0  0
 23 31  1  0  0  0  0
M  END
> <ID>
CPD_627

$$$$
CPD_632
  Mrv1822 09091914012D          

 31 34  0  0  0  0            999 V2000
    4.9279    1.9354    0.0000 C   0  0  0  0  0  0  0  0  0  0  0  0
    5.6424    1.5229    0.0000 O   0  0  0  0  0  0  0  0  0  0  0  0
    5.6424    0.6979    0.0000 C   0  0  0  0  0  0  0  0  0  0  0  0
    4.9279    0.2854    0.0000 C   0  0  0  0  0  0  0  0  0  0  0  0
    4.9279   -0.5396    0.0000 C   0  0  0  0  0  0  0  0  0  0  0  0
    5.6424   -0.9521    0.0000 C   0  0  0  0  0  0  0  0  0  0  0  0
    6.3569   -0.5396    0.0000 C   0  0  0  0  0  0  0  0  0  0  0  0
    7.0714   -0.9521    0.0000 N   0  0  0  0  0  0  0  0  0  0  0  0
    6.3569    0.2854    0.0000 C   0  0  0  0  0  0  0  0  0  0  0  0
    4.2135    0.6979    0.0000 C   0  0  0  0  0  0  0  0  0  0  0  0
    4.2135    1.5229    0.0000 O   0  0  0  0  0  0  0  0  0  0  0  0
    3.4990    0.2854    0.0000 N   0  0  0  0  0  0  0  0  0  0  0  0
    3.4990   -0.5396    0.0000 C   0  0  0  0  0  0  0  0  0  0  0  0
    4.2135   -0.9521    0.0000 C   0  0  0  0  0  0  0  0  0  0  0  0
    4.2135   -1.7771    0.0000 C   0  0  0  0  0  0  0  0  0  0  0  0
    4.9279   -2.1896    0.0000 C   0  0  0  0  0  0  0  0  0  0  0  0
    3.4990   -2.1896    0.0000 C   0  0  0  0  0  0  0  0  0  0  0  0
    2.7845   -1.7771    0.0000 C   0  0  0  0  0  0  0  0  0  0  0  0
    2.7845   -0.9521    0.0000 C   0  0  0  0  0  0  0  0  0  0  0  0
    2.7845    0.6979    0.0000 S   0  0  0  0  0  0  0  0  0  0  0  0
    3.1970    1.4124    0.0000 O   0  0  0  0  0  0  0  0  0  0  0  0
    2.3720   -0.0165    0.0000 O   0  0  0  0  0  0  0  0  0  0  0  0
    2.0701    1.1104    0.0000 C   0  0  0  0  0  0  0  0  0  0  0  0
    1.3556    0.6979    0.0000 C   0  0  0  0  0  0  0  0  0  0  0  0
    0.6411    1.1104    0.0000 N   0  0  0  0  0  0  0  0  0  0  0  0
   -0.1435    0.8555    0.0000 C   0  0  0  0  0  0  0  0  0  0  0  0
   -0.6284    1.5229    0.0000 N   0  0  0  0  0  0  0  0  0  0  0  0
   -0.1435    2.1904    0.0000 N   0  0  0  0  0  0  0  0  0  0  0  0
    0.6411    1.9354    0.0000 C   0  0  0  0  0  0  0  0  0  0  0  0
    1.3556    2.3479    0.0000 C   0  0  0  0  0  0  0  0  0  0  0  0
    2.0701    1.9354    0.0000 C   0  0  0  0  0  0  0  0  0  0  0  0
  1  2  1  0  0  0  0
  2  3  1  0  0  0  0
  3  4  2  0  0  0  0
  4  5  1  0  0  0  0
  5  6  2  0  0  0  0
  6  7  1  0  0  0  0
  7  8  1  0  0  0  0
  7  9  2  0  0  0  0
  3  9  1  0  0  0  0
  4 10  1  0  0  0  0
 10 11  2  0  0  0  0
 10 12  1  0  0  0  0
 12 13  1  0  0  0  0
 13 14  2  0  0  0  0
 14 15  1  0  0  0  0
 15 16  1  0  0  0  0
 15 17  2  0  0  0  0
 17 18  1  0  0  0  0
 18 19  2  0  0  0  0
 13 19  1  0  0  0  0
 12 20  1  0  0  0  0
 20 21  2  0  0  0  0
 20 22  2  0  0  0  0
 20 23  1  0  0  0  0
 23 24  2  0  0  0  0
 24 25  1  0  0  0  0
 25 26  1  0  0  0  0
 26 27  2  0  0  0  0
 27 28  1  0  0  0  0
 28 29  2  0  0  0  0
 25 29  1  0  0  0  0
 29 30  1  0  0  0  0
 30 31  2  0  0  0  0
 23 31  1  0  0  0  0
M  END
> <ID>
CPD_632

$$$$
CPD_637
  Mrv1822 09091914012D          

 32 35  0  0  0  0            999 V2000
    2.0701    2.7604    0.0000 C   0  0  0  0  0  0  0  0  0  0  0  0
    2.7845    3.1729    0.0000 C   0  0  0  0  0  0  0  0  0  0  0  0
    2.7845    3.9979    0.0000 C   0  0  0  0  0  0  0  0  0  0  0  0
    3.4990    2.7604    0.0000 C   0  0  0  0  0  0  0  0  0  0  0  0
    3.4990    1.9354    0.0000 C   0  0  0  0  0  0  0  0  0  0  0  0
    4.2135    1.5229    0.0000 C   0  0  0  0  0  0  0  0  0  0  0  0
    4.2135    0.6979    0.0000 C   0  0  0  0  0  0  0  0  0  0  0  0
    4.9279    0.2854    0.0000 O   0  0  0  0  0  0  0  0  0  0  0  0
    3.4990    0.2854    0.0000 N   0  0  0  0  0  0  0  0  0  0  0  0
    3.4990   -0.5396    0.0000 C   0  0  0  0  0  0  0  0  0  0  0  0
    4.2135   -0.9521    0.0000 C   0  0  0  0  0  0  0  0  0  0  0  0
    4.2135   -1.7771    0.0000 C   0  0  0  0  0  0  0  0  0  0  0  0
    4.9279   -2.1896    0.0000 C   0  0  0  0  0  0  0  0  0  0  0  0
    3.4990   -2.1896    0.0000 C   0  0  0  0  0  0  0  0  0  0  0  0
    2.7845   -1.7771    0.0000 C   0  0  0  0  0  0  0  0  0  0  0  0
    2.7845   -0.9521    0.0000 C   0  0  0  0  0  0  0  0  0  0  0  0
    2.7845    0.6979    0.0000 S   0  0  0  0  0  0  0  0  0  0  0  0
    3.1970    1.4124    0.0000 O   0  0  0  0  0  0  0  0  0  0  0  0
    2.3720   -0.0165    0.0000 O   0  0  0  0  0  0  0  0  0  0  0  0
    2.0701    1.1104    0.0000 C   0  0  0  0  0  0  0  0  0  0  0  0
    1.3556    0.6979    0.0000 C   0  0  0  0  0  0  0  0  0  0  0  0
    0.6411    1.1104    0.0000 N   0  0  0  0  0  0  0  0  0  0  0  0
   -0.1435    0.8555    0.0000 C   0  0  0  0  0  0  0  0  0  0  0  0
   -0.6284    1.5229    0.0000 N   0  0  0  0  0  0  0  0  0  0  0  0
   -0.1435    2.1904    0.0000 N   0  0  0  0  0  0  0  0  0  0  0  0
    0.6411    1.9354    0.0000 C   0  0  0  0  0  0  0  0  0  0  0  0
    1.3556    2.3479    0.0000 C   0  0  0  0  0  0  0  0  0  0  0  0
    2.0701    1.9354    0.0000 C   0  0  0  0  0  0  0  0  0  0  0  0
    4.9279    1.9354    0.0000 C   0  0  0  0  0  0  0  0  0  0  0  0
    5.6424    1.5229    0.0000 O   0  0  0  0  0  0  0  0  0  0  0  0
    4.9279    2.7604    0.0000 C   0  0  0  0  0  0  0  0  0  0  0  0
    4.2135    3.1729    0.0000 C   0  0  0  0  0  0  0  0  0  0  0  0
  1  2  1  0  0  0  0
  2  3  1  0  0  0  0
  2  4  1  0  0  0  0
  4  5  2  0  0  0  0
  5  6  1  0  0  0  0
  6  7  1  0  0  0  0
  7  8  2  0  0  0  0
  7  9  1  0  0  0  0
  9 10  1  0  0  0  0
 10 11  2  0  0  0  0
 11 12  1  0  0  0  0
 12 13  1  0  0  0  0
 12 14  2  0  0  0  0
 14 15  1  0  0  0  0
 15 16  2  0  0  0  0
 10 16  1  0  0  0  0
  9 17  1  0  0  0  0
 17 18  2  0  0  0  0
 17 19  2  0  0  0  0
 17 20  1  0  0  0  0
 20 21  2  0  0  0  0
 21 22  1  0  0  0  0
 22 23  1  0  0  0  0
 23 24  2  0  0  0  0
 24 25  1  0  0  0  0
 25 26  2  0  0  0  0
 22 26  1  0  0  0  0
 26 27  1  0  0  0  0
 27 28  2  0  0  0  0
 20 28  1  0  0  0  0
  6 29  2  0  0  0  0
 29 30  1  0  0  0  0
 29 31  1  0  0  0  0
 31 32  2  0  0  0  0
  4 32  1  0  0  0  0
M  END
> <ID>
CPD_637

$$$$
CPD_642
  Mrv1822 09091914012D          

 33 37  0  0  1  0            999 V2000
    6.8513   -3.3000    0.0000 O   0  0  0  0  0  0  0  0  0  0  0  0
    7.5658   -3.7125    0.0000 C   0  0  2  0  0  0  0  0  0  0  0  0
    8.2802   -3.3000    0.0000 C   0  0  0  0  0  0  0  0  0  0  0  0
    8.2802   -2.4750    0.0000 C   0  0  0  0  0  0  0  0  0  0  0  0
    8.9947   -2.0625    0.0000 C   0  0  0  0  0  0  0  0  0  0  0  0
    9.7092   -2.4750    0.0000 C   0  0  0  0  0  0  0  0  0  0  0  0
    9.7092   -3.3000    0.0000 C   0  0  0  0  0  0  0  0  0  0  0  0
    8.9947   -3.7125    0.0000 C   0  0  0  0  0  0  0  0  0  0  0  0
    7.5658   -4.5375    0.0000 C   0  0  0  0  0  0  0  0  0  0  0  0
    8.2802   -4.9500    0.0000 O   0  0  0  0  0  0  0  0  0  0  0  0
    6.8513   -4.9500    0.0000 N   0  0  0  0  0  0  0  0  0  0  0  0
    6.8513   -5.7750    0.0000 C   0  0  0  0  0  0  0  0  0  0  0  0
    6.1368   -6.1875    0.0000 C   0  0  0  0  0  0  0  0  0  0  0  0
    6.1368   -7.0125    0.0000 C   0  0  0  0  0  0  0  0  0  0  0  0
    6.8513   -7.4250    0.0000 C   0  0  0  0  0  0  0  0  0  0  0  0
    6.8513   -8.2500    0.0000 O   0  0  0  0  0  0  0  0  0  0  0  0
    6.1368   -8.6625    0.0000 C   0  0  0  0  0  0  0  0  0  0  0  0
    5.4223   -8.2500    0.0000 C   0  0  0  0  0  0  0  0  0  0  0  0
    5.4223   -7.4250    0.0000 O   0  0  0  0  0  0  0  0  0  0  0  0
    7.5658   -7.0125    0.0000 C   0  0  0  0  0  0  0  0  0  0  0  0
    7.5658   -6.1875    0.0000 C   0  0  0  0  0  0  0  0  0  0  0  0
    6.1368   -4.5375    0.0000 S   0  0  0  0  0  0  0  0  0  0  0  0
    6.5493   -3.8230    0.0000 O   0  0  0  0  0  0  0  0  0  0  0  0
    5.7243   -5.2520    0.0000 O   0  0  0  0  0  0  0  0  0  0  0  0
    5.4223   -4.1250    0.0000 C   0  0  0  0  0  0  0  0  0  0  0  0
    4.7079   -4.5375    0.0000 C   0  0  0  0  0  0  0  0  0  0  0  0
    3.9934   -4.1250    0.0000 N   0  0  0  0  0  0  0  0  0  0  0  0
    3.2088   -4.3799    0.0000 C   0  0  0  0  0  0  0  0  0  0  0  0
    2.7239   -3.7125    0.0000 N   0  0  0  0  0  0  0  0  0  0  0  0
    3.2088   -3.0451    0.0000 N   0  0  0  0  0  0  0  0  0  0  0  0
    3.9934   -3.3000    0.0000 C   0  0  0  0  0  0  0  0  0  0  0  0
    4.7079   -2.8875    0.0000 C   0  0  0  0  0  0  0  0  0  0  0  0
    5.4223   -3.3000    0.0000 C   0  0  0  0  0  0  0  0  0  0  0  0
  2  1  1  6  0  0  0
  2  3  1  0  0  0  0
  3  4  1  0  0  0  0
  4  5  1  0  0  0  0
  5  6  1  0  0  0  0
  6  7  1  0  0  0  0
  7  8  1  0  0  0  0
  3  8  1  0  0  0  0
  2  9  1  0  0  0  0
  9 10  2  0  0  0  0
  9 11  1  0  0  0  0
 11 12  1  0  0  0  0
 12 13  2  0  0  0  0
 13 14  1  0  0  0  0
 14 15  2  0  0  0  0
 15 16  1  0  0  0  0
 16 17  1  0  0  0  0
 17 18  1  0  0  0  0
 18 19  1  0  0  0  0
 14 19  1  0  0  0  0
 15 20  1  0  0  0  0
 20 21  2  0  0  0  0
 12 21  1  0  0  0  0
 11 22  1  0  0  0  0
 22 23  2  0  0  0  0
 22 24  2  0  0  0  0
 22 25  1  0  0  0  0
 25 26  2  0  0  0  0
 26 27  1  0  0  0  0
 27 28  1  0  0  0  0
 28 29  2  0  0  0  0
 29 30  1  0  0  0  0
 30 31  2  0  0  0  0
 27 31  1  0  0  0  0
 31 32  1  0  0  0  0
 32 33  2  0  0  0  0
 25 33  1  0  0  0  0
M  END
> <ID>
CPD_642

$$$$
CPD_647
  Mrv1822 09091914012D          

 35 40  0  0  0  0            999 V2000
    8.2802   -4.9500    0.0000 O   0  0  0  0  0  0  0  0  0  0  0  0
    7.5658   -4.5375    0.0000 C   0  0  0  0  0  0  0  0  0  0  0  0
    7.5658   -3.7125    0.0000 C   0  0  0  0  0  0  0  0  0  0  0  0
    6.8983   -3.2276    0.0000 C   0  0  0  0  0  0  0  0  0  0  0  0
    7.1533   -2.4430    0.0000 S   0  0  0  0  0  0  0  0  0  0  0  0
    7.9783   -2.4430    0.0000 C   0  0  0  0  0  0  0  0  0  0  0  0
    8.2332   -3.2276    0.0000 N   0  0  0  0  0  0  0  0  0  0  0  0
    8.4632   -1.7755    0.0000 C   0  0  0  0  0  0  0  0  0  0  0  0
    8.2082   -0.9909    0.0000 C   0  0  0  0  0  0  0  0  0  0  0  0
    8.8757   -0.5060    0.0000 C   0  0  0  0  0  0  0  0  0  0  0  0
    9.5431   -0.9909    0.0000 C   0  0  0  0  0  0  0  0  0  0  0  0
    9.2882   -1.7755    0.0000 S   0  0  0  0  0  0  0  0  0  0  0  0
    6.8513   -4.9500    0.0000 N   0  0  0  0  0  0  0  0  0  0  0  0
    6.8513   -5.7750    0.0000 C   0  0  0  0  0  0  0  0  0  0  0  0
    6.1368   -6.1875    0.0000 C   0  0  0  0  0  0  0  0  0  0  0  0
    6.1368   -7.0125    0.0000 C   0  0  0  0  0  0  0  0  0  0  0  0
    6.8513   -7.4250    0.0000 C   0  0  0  0  0  0  0  0  0  0  0  0
    6.8513   -8.2500    0.0000 O   0  0  0  0  0  0  0  0  0  0  0  0
    6.1368   -8.6625    0.0000 C   0  0  0  0  0  0  0  0  0  0  0  0
    5.4223   -8.2500    0.0000 C   0  0  0  0  0  0  0  0  0  0  0  0
    5.4223   -7.4250    0.0000 O   0  0  0  0  0  0  0  0  0  0  0  0
    7.5658   -7.0125    0.0000 C   0  0  0  0  0  0  0  0  0  0  0  0
    7.5658   -6.1875    0.0000 C   0  0  0  0  0  0  0  0  0  0  0  0
    6.1368   -4.5375    0.0000 S   0  0  0  0  0  0  0  0  0  0  0  0
    5.7243   -5.2520    0.0000 O   0  0  0  0  0  0  0  0  0  0  0  0
    6.5493   -3.8230    0.0000 O   0  0  0  0  0  0  0  0  0  0  0  0
    5.4223   -4.1250    0.0000 C   0  0  0  0  0  0  0  0  0  0  0  0
    4.7079   -4.5375    0.0000 C   0  0  0  0  0  0  0  0  0  0  0  0
    3.9934   -4.1250    0.0000 N   0  0  0  0  0  0  0  0  0  0  0  0
    3.2088   -4.3799    0.0000 C   0  0  0  0  0  0  0  0  0  0  0  0
    2.7239   -3.7125    0.0000 N   0  0  0  0  0  0  0  0  0  0  0  0
    3.2088   -3.0451    0.0000 N   0  0  0  0  0  0  0  0  0  0  0  0
    3.9934   -3.3000    0.0000 C   0  0  0  0  0  0  0  0  0  0  0  0
    4.7079   -2.8875    0.0000 C   0  0  0  0  0  0  0  0  0  0  0  0
    5.4223   -3.3000    0.0000 C   0  0  0  0  0  0  0  0  0  0  0  0
  1  2  2  0  0  0  0
  2  3  1  0  0  0  0
  3  4  1  0  0  0  0
  4  5  1  0  0  0  0
  5  6  1  0  0  0  0
  6  7  1  0  0  0  0
  3  7  1  0  0  0  0
  6  8  1  0  0  0  0
  8  9  2  0  0  0  0
  9 10  1  0  0  0  0
 10 11  2  0  0  0  0
 11 12  1  0  0  0  0
  8 12  1  0  0  0  0
  2 13  1  0  0  0  0
 13 14  1  0  0  0  0
 14 15  2  0  0  0  0
 15 16  1  0  0  0  0
 16 17  2  0  0  0  0
 17 18  1  0  0  0  0
 18 19  1  0  0  0  0
 19 20  1  0  0  0  0
 20 21  1  0  0  0  0
 16 21  1  0  0  0  0
 17 22  1  0  0  0  0
 22 23  2  0  0  0  0
 14 23  1  0  0  0  0
 13 24  1  0  0  0  0
 24 25  2  0  0  0  0
 24 26  2  0  0  0  0
 24 27  1  0  0  0  0
 27 28  2  0  0  0  0
 28 29  1  0  0  0  0
 29 30  1  0  0  0  0
 30 31  2  0  0  0  0
 31 32  1  0  0  0  0
 32 33  2  0  0  0  0
 29 33  1  0  0  0  0
 33 34  1  0  0  0  0
 34 35  2  0  0  0  0
 27 35  1  0  0  0  0
M  END
> <ID>
CPD_647

$$$$
CPD_652
  Mrv1822 09091914012D          

 38 43  0  0  0  0            999 V2000
    4.3931    0.1406    0.0000 C   0  0  0  0  0  0  0  0  0  0  0  0
    5.2136    0.2268    0.0000 O   0  0  0  0  0  0  0  0  0  0  0  0
    5.6985   -0.4406    0.0000 C   0  0  0  0  0  0  0  0  0  0  0  0
    6.5190   -0.3544    0.0000 C   0  0  0  0  0  0  0  0  0  0  0  0
    7.0039   -1.0218    0.0000 C   0  0  0  0  0  0  0  0  0  0  0  0
    6.6683   -1.7755    0.0000 C   0  0  0  0  0  0  0  0  0  0  0  0
    5.8479   -1.8618    0.0000 C   0  0  0  0  0  0  0  0  0  0  0  0
    5.3629   -1.1943    0.0000 C   0  0  0  0  0  0  0  0  0  0  0  0
    7.1533   -2.4430    0.0000 C   0  0  0  0  0  0  0  0  0  0  0  0
    7.9783   -2.4430    0.0000 N   0  0  0  0  0  0  0  0  0  0  0  0
    8.2332   -3.2276    0.0000 O   0  0  0  0  0  0  0  0  0  0  0  0
    7.5658   -3.7125    0.0000 C   0  0  0  0  0  0  0  0  0  0  0  0
    6.8983   -3.2276    0.0000 N   0  0  0  0  0  0  0  0  0  0  0  0
    7.5658   -4.5375    0.0000 C   0  0  0  0  0  0  0  0  0  0  0  0
    8.2802   -4.9500    0.0000 O   0  0  0  0  0  0  0  0  0  0  0  0
    6.8513   -4.9500    0.0000 N   0  0  0  0  0  0  0  0  0  0  0  0
    6.8513   -5.7750    0.0000 C   0  0  0  0  0  0  0  0  0  0  0  0
    6.1368   -6.1875    0.0000 C   0  0  0  0  0  0  0  0  0  0  0  0
    6.1368   -7.0125    0.0000 C   0  0  0  0  0  0  0  0  0  0  0  0
    6.8513   -7.4250    0.0000 C   0  0  0  0  0  0  0  0  0  0  0  0
    6.8513   -8.2500    0.0000 O   0  0  0  0  0  0  0  0  0  0  0  0
    6.1368   -8.6625    0.0000 C   0  0  0  0  0  0  0  0  0  0  0  0
    5.4223   -8.2500    0.0000 C   0  0  0  0  0  0  0  0  0  0  0  0
    5.4223   -7.4250    0.0000 O   0  0  0  0  0  0  0  0  0  0  0  0
    7.5658   -7.0125    0.0000 C   0  0  0  0  0  0  0  0  0  0  0  0
    7.5658   -6.1875    0.0000 C   0  0  0  0  0  0  0  0  0  0  0  0
    6.1368   -4.5375    0.0000 S   0  0  0  0  0  0  0  0  0  0  0  0
    5.7243   -5.2520    0.0000 O   0  0  0  0  0  0  0  0  0  0  0  0
    6.5493   -3.8230    0.0000 O   0  0  0  0  0  0  0  0  0  0  0  0
    5.4223   -4.1250    0.0000 C   0  0  0  0  0  0  0  0  0  0  0  0
    4.7079   -4.5375    0.0000 C   0  0  0  0  0  0  0  0  0  0  0  0
    3.9934   -4.1250    0.0000 N   0  0  0  0  0  0  0  0  0  0  0  0
    3.2088   -4.3799    0.0000 C   0  0  0  0  0  0  0  0  0  0  0  0
    2.7239   -3.7125    0.0000 N   0  0  0  0  0  0  0  0  0  0  0  0
    3.2088   -3.0451    0.0000 N   0  0  0  0  0  0  0  0  0  0  0  0
    3.9934   -3.3000    0.0000 C   0  0  0  0  0  0  0  0  0  0  0  0
    4.7079   -2.8875    0.0000 C   0  0  0  0  0  0  0  0  0  0  0  0
    5.4223   -3.3000    0.0000 C   0  0  0  0  0  0  0  0  0  0  0  0
  1  2  1  0  0  0  0
  2  3  1  0  0  0  0
  3  4  2  0  0  0  0
  4  5  1  0  0  0  0
  5  6  2  0  0  0  0
  6  7  1  0  0  0  0
  7  8  2  0  0  0  0
  3  8  1  0  0  0  0
  6  9  1  0  0  0  0
  9 10  2  0  0  0  0
 10 11  1  0  0  0  0
 11 12  1  0  0  0  0
 12 13  2  0  0  0  0
  9 13  1  0  0  0  0
 12 14  1  0  0  0  0
 14 15  2  0  0  0  0
 14 16  1  0  0  0  0
 16 17  1  0  0  0  0
 17 18  2  0  0  0  0
 18 19  1  0  0  0  0
 19 20  2  0  0  0  0
 20 21  1  0  0  0  0
 21 22  1  0  0  0  0
 22 23  1  0  0  0  0
 23 24  1  0  0  0  0
 19 24  1  0  0  0  0
 20 25  1  0  0  0  0
 25 26  2  0  0  0  0
 17 26  1  0  0  0  0
 16 27  1  0  0  0  0
 27 28  2  0  0  0  0
 27 29  2  0  0  0  0
 27 30  1  0  0  0  0
 30 31  2  0  0  0  0
 31 32  1  0  0  0  0
 32 33  1  0  0  0  0
 33 34  2  0  0  0  0
 34 35  1  0  0  0  0
 35 36  2  0  0  0  0
 32 36  1  0  0  0  0
 36 37  1  0  0  0  0
 37 38  2  0  0  0  0
 30 38  1  0  0  0  0
M  END
> <ID>
CPD_652

$$$$
CPD_657
  Mrv1822 09091914012D          

 36 39  0  0  0  0            999 V2000
   -1.2054    0.9256    0.0000 C   0  0  0  0  0  0  0  0  0  0  0  0
   -0.3984    0.7541    0.0000 C   0  0  0  0  0  0  0  0  0  0  0  0
   -0.1435   -0.0305    0.0000 C   0  0  0  0  0  0  0  0  0  0  0  0
   -0.6284   -0.6979    0.0000 N   0  0  0  0  0  0  0  0  0  0  0  0
   -0.1435   -1.3654    0.0000 N   0  0  0  0  0  0  0  0  0  0  0  0
    0.6411   -1.1104    0.0000 C   0  0  0  0  0  0  0  0  0  0  0  0
    0.6411   -0.2854    0.0000 N   0  0  0  0  0  0  0  0  0  0  0  0
    1.3556    0.1271    0.0000 C   0  0  0  0  0  0  0  0  0  0  0  0
    2.0701   -0.2854    0.0000 C   0  0  0  0  0  0  0  0  0  0  0  0
    2.0701   -1.1104    0.0000 C   0  0  0  0  0  0  0  0  0  0  0  0
    1.3556   -1.5229    0.0000 C   0  0  0  0  0  0  0  0  0  0  0  0
    1.3556   -2.3479    0.0000 S   0  0  0  0  0  0  0  0  0  0  0  0
    0.5306   -2.3479    0.0000 O   0  0  0  0  0  0  0  0  0  0  0  0
    2.1806   -2.3479    0.0000 O   0  0  0  0  0  0  0  0  0  0  0  0
    1.3556   -3.1729    0.0000 N   0  0  0  0  0  0  0  0  0  0  0  0
    2.0701   -3.5854    0.0000 C   0  0  0  0  0  0  0  0  0  0  0  0
    2.7845   -3.1729    0.0000 O   0  0  0  0  0  0  0  0  0  0  0  0
    2.0701   -4.4104    0.0000 C   0  0  0  0  0  0  0  0  0  0  0  0
    2.7375   -4.8954    0.0000 C   0  0  0  0  0  0  0  0  0  0  0  0
    3.5221   -4.6404    0.0000 C   0  0  0  0  0  0  0  0  0  0  0  0
    2.4826   -5.6800    0.0000 C   0  0  0  0  0  0  0  0  0  0  0  0
    2.9675   -6.3474    0.0000 C   0  0  0  0  0  0  0  0  0  0  0  0
    3.7880   -6.2612    0.0000 O   0  0  0  0  0  0  0  0  0  0  0  0
    2.6319   -7.1011    0.0000 O   0  0  0  0  0  0  0  0  0  0  0  0
    1.6576   -5.6800    0.0000 C   0  0  0  0  0  0  0  0  0  0  0  0
    1.1726   -6.3474    0.0000 C   0  0  0  0  0  0  0  0  0  0  0  0
    1.4026   -4.8954    0.0000 N   0  0  0  0  0  0  0  0  0  0  0  0
    0.6411   -3.5854    0.0000 C   0  0  0  0  0  0  0  0  0  0  0  0
    0.6411   -4.4104    0.0000 C   0  0  0  0  0  0  0  0  0  0  0  0
   -0.0734   -4.8229    0.0000 C   0  0  0  0  0  0  0  0  0  0  0  0
   -0.7878   -4.4104    0.0000 C   0  0  0  0  0  0  0  0  0  0  0  0
   -0.7878   -3.5854    0.0000 C   0  0  0  0  0  0  0  0  0  0  0  0
   -0.0734   -3.1729    0.0000 C   0  0  0  0  0  0  0  0  0  0  0  0
   -1.5023   -4.8229    0.0000 C   0  0  0  0  0  0  0  0  0  0  0  0
   -2.2168   -4.4104    0.0000 C   0  0  0  0  0  0  0  0  0  0  0  0
   -1.5023   -5.6479    0.0000 C   0  0  0  0  0  0  0  0  0  0  0  0
  1  2  1  0  0  0  0
  2  3  1  0  0  0  0
  3  4  2  0  0  0  0
  4  5  1  0  0  0  0
  5  6  2  0  0  0  0
  6  7  1  0  0  0  0
  3  7  1  0  0  0  0
  7  8  1  0  0  0  0
  8  9  2  0  0  0  0
  9 10  1  0  0  0  0
 10 11  2  0  0  0  0
  6 11  1  0  0  0  0
 11 12  1  0  0  0  0
 12 13  2  0  0  0  0
 12 14  2  0  0  0  0
 12 15  1  0  0  0  0
 15 16  1  0  0  0  0
 16 17  2  0  0  0  0
 16 18  1  0  0  0  0
 18 19  2  0  0  0  0
 19 20  1  0  0  0  0
 19 21  1  0  0  0  0
 21 22  1  0  0  0  0
 22 23  1  0  0  0  0
 22 24  2  0  0  0  0
 21 25  2  0  0  0  0
 25 26  1  0  0  0  0
 25 27  1  0  0  0  0
 18 27  1  0  0  0  0
 15 28  1  0  0  0  0
 28 29  2  0  0  0  0
 29 30  1  0  0  0  0
 30 31  2  0  0  0  0
 31 32  1  0  0  0  0
 32 33  2  0  0  0  0
 28 33  1  0  0  0  0
 31 34  1  0  0  0  0
 34 35  1  0  0  0  0
 34 36  1  0  0  0  0
M  END
> <ID>
CPD_657

$$$$
CPD_662
  Mrv1822 09091914012D          

 27 30  0  0  0  0            999 V2000
    4.2135    1.5229    0.0000 O   0  0  0  0  0  0  0  0  0  0  0  0
    4.2135    0.6979    0.0000 C   0  0  0  0  0  0  0  0  0  0  0  0
    4.9279    0.2854    0.0000 C   0  0  0  0  0  0  0  0  0  0  0  0
    5.6424    0.6979    0.0000 C   0  0  0  0  0  0  0  0  0  0  0  0
    5.7286    1.5184    0.0000 C   0  0  0  0  0  0  0  0  0  0  0  0
    6.5356    1.6900    0.0000 S   0  0  0  0  0  0  0  0  0  0  0  0
    6.9481    0.9755    0.0000 C   0  0  0  0  0  0  0  0  0  0  0  0
    6.3961    0.3624    0.0000 C   0  0  0  0  0  0  0  0  0  0  0  0
    3.4990    0.2854    0.0000 N   0  0  0  0  0  0  0  0  0  0  0  0
    3.4990   -0.5396    0.0000 C   0  0  0  0  0  0  0  0  0  0  0  0
    4.2135   -0.9521    0.0000 C   0  0  0  0  0  0  0  0  0  0  0  0
    4.2135   -1.7771    0.0000 C   0  0  0  0  0  0  0  0  0  0  0  0
    3.4990   -2.1896    0.0000 C   0  0  0  0  0  0  0  0  0  0  0  0
    2.7845   -1.7771    0.0000 C   0  0  0  0  0  0  0  0  0  0  0  0
    2.7845   -0.9521    0.0000 C   0  0  0  0  0  0  0  0  0  0  0  0
    2.7845    0.6979    0.0000 S   0  0  0  0  0  0  0  0  0  0  0  0
    3.1970    1.4124    0.0000 O   0  0  0  0  0  0  0  0  0  0  0  0
    2.3720   -0.0165    0.0000 O   0  0  0  0  0  0  0  0  0  0  0  0
    2.0701    1.1104    0.0000 C   0  0  0  0  0  0  0  0  0  0  0  0
    1.3556    0.6979    0.0000 C   0  0  0  0  0  0  0  0  0  0  0  0
    0.6411    1.1104    0.0000 N   0  0  0  0  0  0  0  0  0  0  0  0
   -0.1435    0.8555    0.0000 C   0  0  0  0  0  0  0  0  0  0  0  0
   -0.6284    1.5229    0.0000 N   0  0  0  0  0  0  0  0  0  0  0  0
   -0.1435    2.1904    0.0000 N   0  0  0  0  0  0  0  0  0  0  0  0
    0.6411    1.9354    0.0000 C   0  0  0  0  0  0  0  0  0  0  0  0
    1.3556    2.3479    0.0000 C   0  0  0  0  0  0  0  0  0  0  0  0
    2.0701    1.9354    0.0000 C   0  0  0  0  0  0  0  0  0  0  0  0
  1  2  2  0  0  0  0
  2  3  1  0  0  0  0
  3  4  1  0  0  0  0
  4  5  2  0  0  0  0
  5  6  1  0  0  0  0
  6  7  1  0  0  0  0
  7  8  2  0  0  0  0
  4  8  1  0  0  0  0
  2  9  1  0  0  0  0
  9 10  1  0  0  0  0
 10 11  2  0  0  0  0
 11 12  1  0  0  0  0
 12 13  2  0  0  0  0
 13 14  1  0  0  0  0
 14 15  2  0  0  0  0
 10 15  1  0  0  0  0
  9 16  1  0  0  0  0
 16 17  2  0  0  0  0
 16 18  2  0  0  0  0
 16 19  1  0  0  0  0
 19 20  2  0  0  0  0
 20 21  1  0  0  0  0
 21 22  1  0  0  0  0
 22 23  2  0  0  0  0
 23 24  1  0  0  0  0
 24 25  2  0  0  0  0
 21 25  1  0  0  0  0
 25 26  1  0  0  0  0
 26 27  2  0  0  0  0
 19 27  1  0  0  0  0
M  END
> <ID>
CPD_662

$$$$
CPD_667
  Mrv1822 09091914012D          

 28 30  0  0  0  0            999 V2000
    8.5003   -0.1271    0.0000 C   0  0  0  0  0  0  0  0  0  0  0  0
    7.7858   -0.5396    0.0000 C   0  0  0  0  0  0  0  0  0  0  0  0
    7.0714   -0.1271    0.0000 O   0  0  0  0  0  0  0  0  0  0  0  0
    6.3569   -0.5396    0.0000 C   0  0  0  0  0  0  0  0  0  0  0  0
    6.3569   -1.3646    0.0000 O   0  0  0  0  0  0  0  0  0  0  0  0
    5.6424   -0.1271    0.0000 C   0  0  0  0  0  0  0  0  0  0  0  0
    4.9279    0.2854    0.0000 C   0  0  0  0  0  0  0  0  0  0  0  0
    4.2135    0.6979    0.0000 C   0  0  0  0  0  0  0  0  0  0  0  0
    4.2135    1.5229    0.0000 O   0  0  0  0  0  0  0  0  0  0  0  0
    3.4990    0.2854    0.0000 N   0  0  0  0  0  0  0  0  0  0  0  0
    3.4990   -0.5396    0.0000 C   0  0  0  0  0  0  0  0  0  0  0  0
    4.2135   -0.9521    0.0000 C   0  0  0  0  0  0  0  0  0  0  0  0
    4.2135   -1.7771    0.0000 C   0  0  0  0  0  0  0  0  0  0  0  0
    3.4990   -2.1896    0.0000 C   0  0  0  0  0  0  0  0  0  0  0  0
    2.7845   -1.7771    0.0000 C   0  0  0  0  0  0  0  0  0  0  0  0
    2.7845   -0.9521    0.0000 C   0  0  0  0  0  0  0  0  0  0  0  0
    2.7845    0.6979    0.0000 S   0  0  0  0  0  0  0  0  0  0  0  0
    3.1970    1.4124    0.0000 O   0  0  0  0  0  0  0  0  0  0  0  0
    2.3720   -0.0165    0.0000 O   0  0  0  0  0  0  0  0  0  0  0  0
    2.0701    1.1104    0.0000 C   0  0  0  0  0  0  0  0  0  0  0  0
    1.3556    0.6979    0.0000 C   0  0  0  0  0  0  0  0  0  0  0  0
    0.6411    1.1104    0.0000 N   0  0  0  0  0  0  0  0  0  0  0  0
   -0.1435    0.8555    0.0000 C   0  0  0  0  0  0  0  0  0  0  0  0
   -0.6284    1.5229    0.0000 N   0  0  0  0  0  0  0  0  0  0  0  0
   -0.1435    2.1904    0.0000 N   0  0  0  0  0  0  0  0  0  0  0  0
    0.6411    1.9354    0.0000 C   0  0  0  0  0  0  0  0  0  0  0  0
    1.3556    2.3479    0.0000 C   0  0  0  0  0  0  0  0  0  0  0  0
    2.0701    1.9354    0.0000 C   0  0  0  0  0  0  0  0  0  0  0  0
  1  2  1  0  0  0  0
  2  3  1  0  0  0  0
  3  4  1  0  0  0  0
  4  5  2  0  0  0  0
  4  6  1  0  0  0  0
  6  7  3  0  0  0  0
  7  8  1  0  0  0  0
  8  9  2  0  0  0  0
  8 10  1  0  0  0  0
 10 11  1  0  0  0  0
 11 12  2  0  0  0  0
 12 13  1  0  0  0  0
 13 14  2  0  0  0  0
 14 15  1  0  0  0  0
 15 16  2  0  0  0  0
 11 16  1  0  0  0  0
 10 17  1  0  0  0  0
 17 18  2  0  0  0  0
 17 19  2  0  0  0  0
 17 20  1  0  0  0  0
 20 21  2  0  0  0  0
 21 22  1  0  0  0  0
 22 23  1  0  0  0  0
 23 24  2  0  0  0  0
 24 25  1  0  0  0  0
 25 26  2  0  0  0  0
 22 26  1  0  0  0  0
 26 27  1  0  0  0  0
 27 28  2  0  0  0  0
 20 28  1  0  0  0  0
M  END
> <ID>
CPD_667

$$$$
CPD_672
  Mrv1822 09091914012D          

 31 34  0  0  0  0            999 V2000
    7.7858    0.2854    0.0000 O   0  0  0  0  0  0  0  0  0  0  0  0
    7.0714    0.6979    0.0000 C   0  0  0  0  0  0  0  0  0  0  0  0
    7.0714    1.5229    0.0000 O   0  0  0  0  0  0  0  0  0  0  0  0
    6.3569    0.2854    0.0000 C   0  0  0  0  0  0  0  0  0  0  0  0
    6.3569   -0.5396    0.0000 C   0  0  0  0  0  0  0  0  0  0  0  0
    7.0714   -0.9521    0.0000 O   0  0  0  0  0  0  0  0  0  0  0  0
    5.6424   -0.9521    0.0000 C   0  0  0  0  0  0  0  0  0  0  0  0
    4.9279   -0.5396    0.0000 C   0  0  0  0  0  0  0  0  0  0  0  0
    4.9279    0.2854    0.0000 C   0  0  0  0  0  0  0  0  0  0  0  0
    5.6424    0.6979    0.0000 C   0  0  0  0  0  0  0  0  0  0  0  0
    4.2135    0.6979    0.0000 C   0  0  0  0  0  0  0  0  0  0  0  0
    4.2135    1.5229    0.0000 O   0  0  0  0  0  0  0  0  0  0  0  0
    3.4990    0.2854    0.0000 N   0  0  0  0  0  0  0  0  0  0  0  0
    3.4990   -0.5396    0.0000 C   0  0  0  0  0  0  0  0  0  0  0  0
    4.2135   -0.9521    0.0000 C   0  0  0  0  0  0  0  0  0  0  0  0
    4.2135   -1.7771    0.0000 C   0  0  0  0  0  0  0  0  0  0  0  0
    3.4990   -2.1896    0.0000 C   0  0  0  0  0  0  0  0  0  0  0  0
    2.7845   -1.7771    0.0000 C   0  0  0  0  0  0  0  0  0  0  0  0
    2.7845   -0.9521    0.0000 C   0  0  0  0  0  0  0  0  0  0  0  0
    2.7845    0.6979    0.0000 S   0  0  0  0  0  0  0  0  0  0  0  0
    3.1970    1.4124    0.0000 O   0  0  0  0  0  0  0  0  0  0  0  0
    2.3720   -0.0165    0.0000 O   0  0  0  0  0  0  0  0  0  0  0  0
    2.0701    1.1104    0.0000 C   0  0  0  0  0  0  0  0  0  0  0  0
    1.3556    0.6979    0.0000 C   0  0  0  0  0  0  0  0  0  0  0  0
    0.6411    1.1104    0.0000 N   0  0  0  0  0  0  0  0  0  0  0  0
   -0.1435    0.8555    0.0000 C   0  0  0  0  0  0  0  0  0  0  0  0
   -0.6284    1.5229    0.0000 N   0  0  0  0  0  0  0  0  0  0  0  0
   -0.1435    2.1904    0.0000 N   0  0  0  0  0  0  0  0  0  0  0  0
    0.6411    1.9354    0.0000 C   0  0  0  0  0  0  0  0  0  0  0  0
    1.3556    2.3479    0.0000 C   0  0  0  0  0  0  0  0  0  0  0  0
    2.0701    1.9354    0.0000 C   0  0  0  0  0  0  0  0  0  0  0  0
  1  2  1  0  0  0  0
  2  3  2  0  0  0  0
  2  4  1  0  0  0  0
  4  5  2  0  0  0  0
  5  6  1  0  0  0  0
  5  7  1  0  0  0  0
  7  8  2  0  0  0  0
  8  9  1  0  0  0  0
  9 10  2  0  0  0  0
  4 10  1  0  0  0  0
  9 11  1  0  0  0  0
 11 12  2  0  0  0  0
 11 13  1  0  0  0  0
 13 14  1  0  0  0  0
 14 15  2  0  0  0  0
 15 16  1  0  0  0  0
 16 17  2  0  0  0  0
 17 18  1  0  0  0  0
 18 19  2  0  0  0  0
 14 19  1  0  0  0  0
 13 20  1  0  0  0  0
 20 21  2  0  0  0  0
 20 22  2  0  0  0  0
 20 23  1  0  0  0  0
 23 24  2  0  0  0  0
 24 25  1  0  0  0  0
 25 26  1  0  0  0  0
 26 27  2  0  0  0  0
 27 28  1  0  0  0  0
 28 29  2  0  0  0  0
 25 29  1  0  0  0  0
 29 30  1  0  0  0  0
 30 31  2  0  0  0  0
 23 31  1  0  0  0  0
M  END
> <ID>
CPD_672

$$$$
CPD_677
  Mrv1822 09091914012D          

 36 40  0  0  0  0            999 V2000
   -0.3984    0.7541    0.0000 C   0  0  0  0  0  0  0  0  0  0  0  0
   -0.1435   -0.0305    0.0000 C   0  0  0  0  0  0  0  0  0  0  0  0
   -0.6284   -0.6979    0.0000 N   0  0  0  0  0  0  0  0  0  0  0  0
   -0.1435   -1.3654    0.0000 N   0  0  0  0  0  0  0  0  0  0  0  0
    0.6411   -1.1104    0.0000 C   0  0  0  0  0  0  0  0  0  0  0  0
    0.6411   -0.2854    0.0000 N   0  0  0  0  0  0  0  0  0  0  0  0
    1.3556    0.1271    0.0000 C   0  0  0  0  0  0  0  0  0  0  0  0
    2.0701   -0.2854    0.0000 C   0  0  0  0  0  0  0  0  0  0  0  0
    2.0701   -1.1104    0.0000 C   0  0  0  0  0  0  0  0  0  0  0  0
    1.3556   -1.5229    0.0000 C   0  0  0  0  0  0  0  0  0  0  0  0
    1.3556   -2.3479    0.0000 S   0  0  0  0  0  0  0  0  0  0  0  0
    0.5306   -2.3479    0.0000 O   0  0  0  0  0  0  0  0  0  0  0  0
    2.1806   -2.3479    0.0000 O   0  0  0  0  0  0  0  0  0  0  0  0
    1.3556   -3.1729    0.0000 N   0  0  0  0  0  0  0  0  0  0  0  0
    0.6411   -3.5854    0.0000 C   0  0  0  0  0  0  0  0  0  0  0  0
   -0.0734   -3.1729    0.0000 O   0  0  0  0  0  0  0  0  0  0  0  0
    0.6411   -4.4104    0.0000 C   0  0  0  0  0  0  0  0  0  0  0  0
    1.3556   -4.8229    0.0000 C   0  0  0  0  0  0  0  0  0  0  0  0
    1.3556   -5.6479    0.0000 C   0  0  0  0  0  0  0  0  0  0  0  0
    0.6411   -6.0604    0.0000 C   0  0  0  0  0  0  0  0  0  0  0  0
   -0.0734   -5.6479    0.0000 N   0  0  0  0  0  0  0  0  0  0  0  0
   -0.0734   -4.8229    0.0000 C   0  0  0  0  0  0  0  0  0  0  0  0
   -0.7878   -4.4104    0.0000 N   0  0  0  0  0  0  0  0  0  0  0  0
   -1.5023   -4.8229    0.0000 C   0  0  0  0  0  0  0  0  0  0  0  0
   -2.2168   -4.4104    0.0000 C   0  0  0  0  0  0  0  0  0  0  0  0
   -2.2168   -3.5854    0.0000 N   0  0  0  0  0  0  0  0  0  0  0  0
   -1.5023   -3.1729    0.0000 C   0  0  0  0  0  0  0  0  0  0  0  0
   -0.7878   -3.5854    0.0000 C   0  0  0  0  0  0  0  0  0  0  0  0
    2.0701   -3.5854    0.0000 C   0  0  0  0  0  0  0  0  0  0  0  0
    2.7845   -3.1729    0.0000 C   0  0  0  0  0  0  0  0  0  0  0  0
    3.4990   -3.5854    0.0000 C   0  0  0  0  0  0  0  0  0  0  0  0
    4.2135   -3.1729    0.0000 F   0  0  0  0  0  0  0  0  0  0  0  0
    3.4990   -4.4104    0.0000 C   0  0  0  0  0  0  0  0  0  0  0  0
    2.7845   -4.8229    0.0000 C   0  0  0  0  0  0  0  0  0  0  0  0
    2.7845   -5.6479    0.0000 F   0  0  0  0  0  0  0  0  0  0  0  0
    2.0701   -4.4104    0.0000 C   0  0  0  0  0  0  0  0  0  0  0  0
  1  2  1  0  0  0  0
  2  3  2  0  0  0  0
  3  4  1  0  0  0  0
  4  5  2  0  0  0  0
  5  6  1  0  0  0  0
  2  6  1  0  0  0  0
  6  7  1  0  0  0  0
  7  8  2  0  0  0  0
  8  9  1  0  0  0  0
  9 10  2  0  0  0  0
  5 10  1  0  0  0  0
 10 11  1  0  0  0  0
 11 12  2  0  0  0  0
 11 13  2  0  0  0  0
 11 14  1  0  0  0  0
 14 15  1  0  0  0  0
 15 16  2  0  0  0  0
 15 17  1  0  0  0  0
 17 18  2  0  0  0  0
 18 19  1  0  0  0  0
 19 20  2  0  0  0  0
 20 21  1  0  0  0  0
 21 22  2  0  0  0  0
 17 22  1  0  0  0  0
 22 23  1  0  0  0  0
 23 24  1  0  0  0  0
 24 25  1  0  0  0  0
 25 26  1  0  0  0  0
 26 27  1  0  0  0  0
 27 28  1  0  0  0  0
 23 28  1  0  0  0  0
 14 29  1  0  0  0  0
 29 30  2  0  0  0  0
 30 31  1  0  0  0  0
 31 32  1  0  0  0  0
 31 33  2  0  0  0  0
 33 34  1  0  0  0  0
 34 35  1  0  0  0  0
 34 36  2  0  0  0  0
 29 36  1  0  0  0  0
M  END
> <ID>
CPD_677

$$$$
CPD_682
  Mrv1822 09091914012D          

 36 38  0  0  0  0            999 V2000
   -2.8131   -3.0336    0.0000 C   0  0  0  0  0  0  0  0  0  0  0  0
   -2.2730   -3.6573    0.0000 C   0  0  0  0  0  0  0  0  0  0  0  0
   -2.5430   -4.4368    0.0000 O   0  0  0  0  0  0  0  0  0  0  0  0
   -2.0029   -5.0605    0.0000 C   0  0  0  0  0  0  0  0  0  0  0  0
   -2.2730   -5.8400    0.0000 O   0  0  0  0  0  0  0  0  0  0  0  0
   -1.1928   -4.9046    0.0000 C   0  0  0  0  0  0  0  0  0  0  0  0
   -0.9227   -4.1250    0.0000 C   0  0  0  0  0  0  0  0  0  0  0  0
   -0.1126   -3.9691    0.0000 C   0  0  0  0  0  0  0  0  0  0  0  0
    0.4275   -4.5927    0.0000 C   0  0  0  0  0  0  0  0  0  0  0  0
    1.2376   -4.4368    0.0000 N   0  0  0  0  0  0  0  0  0  0  0  0
    1.5077   -3.6573    0.0000 C   0  0  0  0  0  0  0  0  0  0  0  0
    0.9676   -3.0336    0.0000 N   0  0  0  0  0  0  0  0  0  0  0  0
    1.2376   -2.2541    0.0000 C   0  0  0  0  0  0  0  0  0  0  0  0
    2.0477   -2.0982    0.0000 C   0  0  0  0  0  0  0  0  0  0  0  0
    2.5878   -2.7218    0.0000 C   0  0  0  0  0  0  0  0  0  0  0  0
    2.3178   -3.5014    0.0000 C   0  0  0  0  0  0  0  0  0  0  0  0
    2.8579   -4.1250    0.0000 N   0  0  0  0  0  0  0  0  0  0  0  0
    3.6680   -3.9691    0.0000 C   0  0  0  0  0  0  0  0  0  0  0  0
    3.9381   -3.1895    0.0000 O   0  0  0  0  0  0  0  0  0  0  0  0
    4.2081   -4.5927    0.0000 C   0  0  0  0  0  0  0  0  0  0  0  0
    5.0182   -4.4368    0.0000 C   0  0  0  0  0  0  0  0  0  0  0  0
    5.5583   -5.0605    0.0000 C   0  0  0  0  0  0  0  0  0  0  0  0
    6.3685   -4.9046    0.0000 N   0  0  0  0  0  0  0  0  0  0  0  0
    6.9086   -5.5282    0.0000 C   0  0  0  0  0  0  0  0  0  0  0  0
    7.7187   -5.3723    0.0000 C   0  0  0  0  0  0  0  0  0  0  0  0
    8.2588   -5.9959    0.0000 C   0  0  0  0  0  0  0  0  0  0  0  0
    7.9887   -6.7755    0.0000 C   0  0  0  0  0  0  0  0  0  0  0  0
    8.5288   -7.3991    0.0000 C   0  0  0  0  0  0  0  0  0  0  0  0
    7.1786   -6.9314    0.0000 C   0  0  0  0  0  0  0  0  0  0  0  0
    6.6385   -6.3077    0.0000 C   0  0  0  0  0  0  0  0  0  0  0  0
    6.6385   -4.1250    0.0000 S   0  0  0  0  0  0  0  0  0  0  0  0
    7.4181   -4.3950    0.0000 C   0  0  0  0  0  0  0  0  0  0  0  0
    5.8590   -3.8550    0.0000 O   0  0  0  0  0  0  0  0  0  0  0  0
    6.9086   -3.3454    0.0000 O   0  0  0  0  0  0  0  0  0  0  0  0
    0.1574   -5.3723    0.0000 C   0  0  0  0  0  0  0  0  0  0  0  0
   -0.6527   -5.5282    0.0000 C   0  0  0  0  0  0  0  0  0  0  0  0
  1  2  1  0  0  0  0
  2  3  1  0  0  0  0
  3  4  1  0  0  0  0
  4  5  2  0  0  0  0
  4  6  1  0  0  0  0
  6  7  2  0  0  0  0
  7  8  1  0  0  0  0
  8  9  2  0  0  0  0
  9 10  1  0  0  0  0
 10 11  1  0  0  0  0
 11 12  2  0  0  0  0
 12 13  1  0  0  0  0
 13 14  2  0  0  0  0
 14 15  1  0  0  0  0
 15 16  2  0  0  0  0
 11 16  1  0  0  0  0
 16 17  1  0  0  0  0
 17 18  1  0  0  0  0
 18 19  2  0  0  0  0
 18 20  1  0  0  0  0
 20 21  1  0  0  0  0
 21 22  1  0  0  0  0
 22 23  1  0  0  0  0
 23 24  1  0  0  0  0
 24 25  2  0  0  0  0
 25 26  1  0  0  0  0
 26 27  2  0  0  0  0
 27 28  1  0  0  0  0
 27 29  1  0  0  0  0
 29 30  2  0  0  0  0
 24 30  1  0  0  0  0
 23 31  1  0  0  0  0
 31 32  1  0  0  0  0
 31 33  2  0  0  0  0
 31 34  2  0  0  0  0
  9 35  1  0  0  0  0
 35 36  2  0  0  0  0
  6 36  1  0  0  0  0
M  END
> <ID>
CPD_682

$$$$
CPD_687
  Mrv1822 09091914012D          

 36 38  0  0  0  0            999 V2000
   -2.9980    2.3349    0.0000 C   0  0  0  0  0  0  0  0  0  0  0  0
   -2.1730    2.3349    0.0000 C   0  0  0  0  0  0  0  0  0  0  0  0
   -1.7605    1.6204    0.0000 O   0  0  0  0  0  0  0  0  0  0  0  0
   -0.9355    1.6204    0.0000 C   0  0  0  0  0  0  0  0  0  0  0  0
   -0.5230    2.3349    0.0000 O   0  0  0  0  0  0  0  0  0  0  0  0
   -0.5230    0.9059    0.0000 C   0  0  0  0  0  0  0  0  0  0  0  0
    0.3020    0.9059    0.0000 C   0  0  0  0  0  0  0  0  0  0  0  0
    0.7145    0.1914    0.0000 C   0  0  0  0  0  0  0  0  0  0  0  0
    0.3020   -0.5230    0.0000 C   0  0  0  0  0  0  0  0  0  0  0  0
   -0.5230   -0.5230    0.0000 C   0  0  0  0  0  0  0  0  0  0  0  0
   -0.9355    0.1914    0.0000 C   0  0  0  0  0  0  0  0  0  0  0  0
    0.7145   -1.2375    0.0000 N   0  0  0  0  0  0  0  0  0  0  0  0
    1.5395   -1.2375    0.0000 C   0  0  0  0  0  0  0  0  0  0  0  0
    1.9520   -0.5230    0.0000 O   0  0  0  0  0  0  0  0  0  0  0  0
    1.9520   -1.9520    0.0000 C   0  0  0  0  0  0  0  0  0  0  0  0
    2.7770   -1.9520    0.0000 N   0  0  0  0  0  0  0  0  0  0  0  0
    3.1895   -2.6664    0.0000 C   0  0  0  0  0  0  0  0  0  0  0  0
    4.0145   -2.6664    0.0000 C   0  0  0  0  0  0  0  0  0  0  0  0
    4.4270   -3.3809    0.0000 C   0  0  0  0  0  0  0  0  0  0  0  0
    4.0145   -4.0954    0.0000 C   0  0  0  0  0  0  0  0  0  0  0  0
    4.4270   -4.8099    0.0000 O   0  0  0  0  0  0  0  0  0  0  0  0
    4.0145   -5.5243    0.0000 C   0  0  0  0  0  0  0  0  0  0  0  0
    4.4270   -6.2388    0.0000 C   0  0  0  0  0  0  0  0  0  0  0  0
    3.1895   -4.0954    0.0000 C   0  0  0  0  0  0  0  0  0  0  0  0
    2.7770   -3.3809    0.0000 C   0  0  0  0  0  0  0  0  0  0  0  0
    3.1895   -1.2375    0.0000 S   0  0  0  0  0  0  0  0  0  0  0  0
    3.9039   -1.6500    0.0000 C   0  0  0  0  0  0  0  0  0  0  0  0
    2.4750   -0.8250    0.0000 O   0  0  0  0  0  0  0  0  0  0  0  0
    3.6020   -0.5230    0.0000 O   0  0  0  0  0  0  0  0  0  0  0  0
    0.3020   -1.9520    0.0000 C   0  0  0  0  0  0  0  0  0  0  0  0
    0.7145   -2.6664    0.0000 N   0  0  0  0  0  0  0  0  0  0  0  0
    0.3020   -3.3809    0.0000 C   0  0  0  0  0  0  0  0  0  0  0  0
   -0.5230   -3.3809    0.0000 C   0  0  0  0  0  0  0  0  0  0  0  0
   -0.9355   -2.6664    0.0000 C   0  0  0  0  0  0  0  0  0  0  0  0
   -0.5230   -1.9520    0.0000 C   0  0  0  0  0  0  0  0  0  0  0  0
   -0.9355   -1.2375    0.0000 N   0  0  0  0  0  0  0  0  0  0  0  0
  1  2  1  0  0  0  0
  2  3  1  0  0  0  0
  3  4  1  0  0  0  0
  4  5  2  0  0  0  0
  4  6  1  0  0  0  0
  6  7  2  0  0  0  0
  7  8  1  0  0  0  0
  8  9  2  0  0  0  0
  9 10  1  0  0  0  0
 10 11  2  0  0  0  0
  6 11  1  0  0  0  0
  9 12  1  0  0  0  0
 12 13  1  0  0  0  0
 13 14  2  0  0  0  0
 13 15  1  0  0  0  0
 15 16  1  0  0  0  0
 16 17  1  0  0  0  0
 17 18  2  0  0  0  0
 18 19  1  0  0  0  0
 19 20  2  0  0  0  0
 20 21  1  0  0  0  0
 21 22  1  0  0  0  0
 22 23  1  0  0  0  0
 20 24  1  0  0  0  0
 24 25  2  0  0  0  0
 17 25  1  0  0  0  0
 16 26  1  0  0  0  0
 26 27  1  0  0  0  0
 26 28  2  0  0  0  0
 26 29  2  0  0  0  0
 12 30  1  0  0  0  0
 30 31  2  0  0  0  0
 31 32  1  0  0  0  0
 32 33  2  0  0  0  0
 33 34  1  0  0  0  0
 34 35  2  0  0  0  0
 30 35  1  0  0  0  0
 35 36  1  0  0  0  0
M  END
> <ID>
CPD_687

$$$$
CPD_692
  Mrv1822 09091914012D          

 27 27  0  0  1  0            999 V2000
    0.6725   -1.1707    0.0000 C   0  0  0  0  0  0  0  0  0  0  0  0
    1.3870   -0.7582    0.0000 C   0  0  0  0  0  0  0  0  0  0  0  0
    2.1015   -1.1707    0.0000 C   0  0  0  0  0  0  0  0  0  0  0  0
    2.1015   -1.9957    0.0000 C   0  0  0  0  0  0  0  0  0  0  0  0
    1.3870   -2.4082    0.0000 C   0  0  0  0  0  0  0  0  0  0  0  0
    2.8159   -0.7582    0.0000 C   0  0  2  0  0  0  0  0  0  0  0  0
    2.8159    0.0668    0.0000 N   0  0  0  0  0  0  0  0  0  0  0  0
    2.1015    0.4793    0.0000 C   0  0  0  0  0  0  0  0  0  0  0  0
    2.1015    1.3043    0.0000 O   0  0  0  0  0  0  0  0  0  0  0  0
    1.3870    0.0668    0.0000 O   0  0  0  0  0  0  0  0  0  0  0  0
    0.6725    0.4793    0.0000 C   0  0  0  0  0  0  0  0  0  0  0  0
   -0.0419    0.8918    0.0000 C   0  0  0  0  0  0  0  0  0  0  0  0
    0.2600   -0.2352    0.0000 C   0  0  0  0  0  0  0  0  0  0  0  0
    1.0850    1.1938    0.0000 C   0  0  0  0  0  0  0  0  0  0  0  0
    3.5304   -1.1707    0.0000 C   0  0  0  0  0  0  0  0  0  0  0  0
    4.2449   -0.7582    0.0000 O   0  0  0  0  0  0  0  0  0  0  0  0
    3.5304   -1.9957    0.0000 N   0  0  0  0  0  0  0  0  0  0  0  0
    4.2449   -2.4082    0.0000 C   0  0  0  0  0  0  0  0  0  0  0  0
    4.9986   -2.0727    0.0000 N   0  0  0  0  0  0  0  0  0  0  0  0
    5.5506   -2.6857    0.0000 O   0  0  0  0  0  0  0  0  0  0  0  0
    5.1381   -3.4002    0.0000 N   0  0  0  0  0  0  0  0  0  0  0  0
    4.3311   -3.2287    0.0000 C   0  0  0  0  0  0  0  0  0  0  0  0
    3.7180   -3.7807    0.0000 N   0  0  0  0  0  0  0  0  0  0  0  0
    3.8896   -4.5877    0.0000 C   0  0  0  0  0  0  0  0  0  0  0  0
    4.6742   -4.8426    0.0000 O   0  0  0  0  0  0  0  0  0  0  0  0
    3.2765   -5.1397    0.0000 O   0  0  0  0  0  0  0  0  0  0  0  0
    3.4480   -5.9467    0.0000 C   0  0  0  0  0  0  0  0  0  0  0  0
  1  2  1  0  0  0  0
  2  3  1  0  0  0  0
  3  4  1  0  0  0  0
  4  5  1  0  0  0  0
  6  3  1  0  0  0  0
  6  7  1  6  0  0  0
  7  8  1  0  0  0  0
  8  9  2  0  0  0  0
  8 10  1  0  0  0  0
 10 11  1  0  0  0  0
 11 12  1  0  0  0  0
 11 13  1  0  0  0  0
 11 14  1  0  0  0  0
  6 15  1  0  0  0  0
 15 16  2  0  0  0  0
 15 17  1  0  0  0  0
 17 18  1  0  0  0  0
 18 19  2  0  0  0  0
 19 20  1  0  0  0  0
 20 21  1  0  0  0  0
 21 22  2  0  0  0  0
 18 22  1  0  0  0  0
 22 23  1  0  0  0  0
 23 24  1  0  0  0  0
 24 25  2  0  0  0  0
 24 26  1  0  0  0  0
 26 27  1  0  0  0  0
M  END
> <ID>
CPD_692

$$$$
CPD_697
  Mrv1822 09091914012D          

 24 25  0  0  0  0            999 V2000
    2.8579   -0.0000    0.0000 C   0  0  0  0  0  0  0  0  0  0  0  0
    2.1434   -0.4125    0.0000 O   0  0  0  0  0  0  0  0  0  0  0  0
    2.1434   -1.2375    0.0000 C   0  0  0  0  0  0  0  0  0  0  0  0
    2.8579   -1.6500    0.0000 O   0  0  0  0  0  0  0  0  0  0  0  0
    1.4289   -1.6500    0.0000 N   0  0  0  0  0  0  0  0  0  0  0  0
    1.4289   -2.4750    0.0000 C   0  0  0  0  0  0  0  0  0  0  0  0
    2.0964   -2.9599    0.0000 N   0  0  0  0  0  0  0  0  0  0  0  0
    1.8414   -3.7445    0.0000 O   0  0  0  0  0  0  0  0  0  0  0  0
    1.0164   -3.7445    0.0000 N   0  0  0  0  0  0  0  0  0  0  0  0
    0.7615   -2.9599    0.0000 C   0  0  0  0  0  0  0  0  0  0  0  0
   -0.0231   -2.7050    0.0000 N   0  0  0  0  0  0  0  0  0  0  0  0
   -0.6362   -3.2570    0.0000 C   0  0  0  0  0  0  0  0  0  0  0  0
   -0.4647   -4.0640    0.0000 O   0  0  0  0  0  0  0  0  0  0  0  0
   -1.4208   -3.0021    0.0000 C   0  0  0  0  0  0  0  0  0  0  0  0
   -2.0339   -3.5541    0.0000 C   0  0  0  0  0  0  0  0  0  0  0  0
   -2.8186   -3.2992    0.0000 C   0  0  0  0  0  0  0  0  0  0  0  0
   -3.4316   -3.8512    0.0000 O   0  0  0  0  0  0  0  0  0  0  0  0
   -3.2601   -4.6582    0.0000 C   0  0  0  0  0  0  0  0  0  0  0  0
   -2.9901   -2.4922    0.0000 C   0  0  0  0  0  0  0  0  0  0  0  0
   -2.3770   -1.9402    0.0000 C   0  0  0  0  0  0  0  0  0  0  0  0
   -1.5924   -2.1951    0.0000 C   0  0  0  0  0  0  0  0  0  0  0  0
   -2.5485   -1.1332    0.0000 C   0  0  0  0  0  0  0  0  0  0  0  0
   -1.9354   -0.5812    0.0000 O   0  0  0  0  0  0  0  0  0  0  0  0
   -3.3331   -0.8783    0.0000 O   0  0  0  0  0  0  0  0  0  0  0  0
  1  2  1  0  0  0  0
  2  3  1  0  0  0  0
  3  4  2  0  0  0  0
  3  5  1  0  0  0  0
  5  6  1  0  0  0  0
  6  7  2  0  0  0  0
  7  8  1  0  0  0  0
  8  9  1  0  0  0  0
  9 10  2  0  0  0  0
  6 10  1  0  0  0  0
 10 11  1  0  0  0  0
 11 12  1  0  0  0  0
 12 13  2  0  0  0  0
 12 14  1  0  0  0  0
 14 15  2  0  0  0  0
 15 16  1  0  0  0  0
 16 17  1  0  0  0  0
 17 18  1  0  0  0  0
 16 19  2  0  0  0  0
 19 20  1  0  0  0  0
 20 21  2  0  0  0  0
 14 21  1  0  0  0  0
 20 22  1  0  0  0  0
 22 23  1  0  0  0  0
 22 24  2  0  0  0  0
M  END
> <ID>
CPD_697

$$$$
CPD_702
  Mrv1822 09091914012D          

 39 43  0  0  0  0            999 V2000
   -0.1105   -5.3033    0.0000 C   0  0  0  0  0  0  0  0  0  0  0  0
    0.3020   -4.5888    0.0000 C   0  0  0  0  0  0  0  0  0  0  0  0
    1.1270   -4.5888    0.0000 C   0  0  0  0  0  0  0  0  0  0  0  0
    1.5395   -3.8743    0.0000 C   0  0  0  0  0  0  0  0  0  0  0  0
    1.1270   -3.1599    0.0000 N   0  0  0  0  0  0  0  0  0  0  0  0
    0.3020   -3.1599    0.0000 C   0  0  0  0  0  0  0  0  0  0  0  0
   -0.1105   -3.8743    0.0000 O   0  0  0  0  0  0  0  0  0  0  0  0
   -0.1105   -2.4454    0.0000 C   0  0  0  0  0  0  0  0  0  0  0  0
   -0.9355   -2.4454    0.0000 N   0  0  0  0  0  0  0  0  0  0  0  0
   -1.3480   -3.1599    0.0000 C   0  0  0  0  0  0  0  0  0  0  0  0
   -2.1730   -3.1599    0.0000 C   0  0  0  0  0  0  0  0  0  0  0  0
   -2.5855   -2.4454    0.0000 C   0  0  0  0  0  0  0  0  0  0  0  0
   -2.1730   -1.7309    0.0000 C   0  0  0  0  0  0  0  0  0  0  0  0
   -1.3480   -1.7309    0.0000 C   0  0  0  0  0  0  0  0  0  0  0  0
   -0.9355   -1.0164    0.0000 C   0  0  0  0  0  0  0  0  0  0  0  0
   -1.3480   -0.3020    0.0000 O   0  0  0  0  0  0  0  0  0  0  0  0
   -0.1105   -1.0164    0.0000 N   0  0  0  0  0  0  0  0  0  0  0  0
    0.3020   -0.3020    0.0000 C   0  0  0  0  0  0  0  0  0  0  0  0
   -0.1105    0.4125    0.0000 C   0  0  0  0  0  0  0  0  0  0  0  0
    0.3020    1.1270    0.0000 C   0  0  0  0  0  0  0  0  0  0  0  0
    1.1270    1.1270    0.0000 O   0  0  0  0  0  0  0  0  0  0  0  0
    1.5395    0.4125    0.0000 C   0  0  0  0  0  0  0  0  0  0  0  0
    1.9520    1.1270    0.0000 C   0  0  0  0  0  0  0  0  0  0  0  0
    2.7770    1.1270    0.0000 C   0  0  0  0  0  0  0  0  0  0  0  0
    3.1895    0.4125    0.0000 N   0  0  0  0  0  0  0  0  0  0  0  0
    4.0145    0.4125    0.0000 C   0  0  0  0  0  0  0  0  0  0  0  0
    4.4270    1.1270    0.0000 C   0  0  0  0  0  0  0  0  0  0  0  0
    4.0145    1.8414    0.0000 C   0  0  0  0  0  0  0  0  0  0  0  0
    4.4270    2.5559    0.0000 C   0  0  0  0  0  0  0  0  0  0  0  0
    5.2520    2.5559    0.0000 C   0  0  0  0  0  0  0  0  0  0  0  0
    5.6645    1.8414    0.0000 C   0  0  0  0  0  0  0  0  0  0  0  0
    5.2520    1.1270    0.0000 C   0  0  0  0  0  0  0  0  0  0  0  0
    2.7770   -0.3020    0.0000 C   0  0  0  0  0  0  0  0  0  0  0  0
    1.9520   -0.3020    0.0000 C   0  0  0  0  0  0  0  0  0  0  0  0
    1.1270   -0.3020    0.0000 C   0  0  0  0  0  0  0  0  0  0  0  0
    2.3645   -3.8743    0.0000 C   0  0  0  0  0  0  0  0  0  0  0  0
    2.7770   -4.5888    0.0000 C   0  0  0  0  0  0  0  0  0  0  0  0
    2.3645   -5.3033    0.0000 C   0  0  0  0  0  0  0  0  0  0  0  0
    1.5395   -5.3033    0.0000 C   0  0  0  0  0  0  0  0  0  0  0  0
  1  2  1  0  0  0  0
  2  3  1  0  0  0  0
  3  4  2  0  0  0  0
  4  5  1  0  0  0  0
  5  6  1  0  0  0  0
  6  7  2  0  0  0  0
  6  8  1  0  0  0  0
  8  9  1  0  0  0  0
  9 10  1  0  0  0  0
 10 11  1  0  0  0  0
 11 12  1  0  0  0  0
 12 13  1  0  0  0  0
 13 14  1  0  0  0  0
  9 14  1  0  0  0  0
 14 15  1  0  0  0  0
 15 16  2  0  0  0  0
 15 17  1  0  0  0  0
 17 18  1  0  0  0  0
 18 19  1  0  0  0  0
 19 20  1  0  0  0  0
 20 21  1  0  0  0  0
 21 22  1  0  0  0  0
 22 23  1  0  0  0  0
 23 24  1  0  0  0  0
 24 25  1  0  0  0  0
 25 26  1  0  0  0  0
 26 27  1  0  0  0  0
 27 28  2  0  0  0  0
 28 29  1  0  0  0  0
 29 30  2  0  0  0  0
 30 31  1  0  0  0  0
 31 32  2  0  0  0  0
 27 32  1  0  0  0  0
 25 33  1  0  0  0  0
 33 34  1  0  0  0  0
 22 34  1  0  0  0  0
 22 35  1  0  0  0  0
 18 35  1  0  0  0  0
  4 36  1  0  0  0  0
 36 37  2  0  0  0  0
 37 38  1  0  0  0  0
 38 39  2  0  0  0  0
  3 39  1  0  0  0  0
M  END
> <ID>
CPD_702

$$$$
CPD_707
  Mrv1822 09091914012D          

 34 37  0  0  1  0            999 V2000
    1.9520   -3.1599    0.0000 C   0  0  0  0  0  0  0  0  0  0  0  0
    1.1270   -3.1599    0.0000 C   0  0  0  0  0  0  0  0  0  0  0  0
    1.1270   -2.3349    0.0000 C   0  0  0  0  0  0  0  0  0  0  0  0
    1.1270   -3.9849    0.0000 C   0  0  0  0  0  0  0  0  0  0  0  0
    0.3020   -3.1599    0.0000 O   0  0  0  0  0  0  0  0  0  0  0  0
   -0.1105   -2.4454    0.0000 C   0  0  0  0  0  0  0  0  0  0  0  0
    0.3020   -1.7309    0.0000 O   0  0  0  0  0  0  0  0  0  0  0  0
   -0.9355   -2.4454    0.0000 N   0  0  0  0  0  0  0  0  0  0  0  0
   -1.3480   -3.1599    0.0000 C   0  0  0  0  0  0  0  0  0  0  0  0
   -2.1730   -3.1599    0.0000 C   0  0  0  0  0  0  0  0  0  0  0  0
   -2.5855   -2.4454    0.0000 C   0  0  0  0  0  0  0  0  0  0  0  0
   -2.1730   -1.7309    0.0000 C   0  0  0  0  0  0  0  0  0  0  0  0
   -1.3480   -1.7309    0.0000 C   0  0  1  0  0  0  0  0  0  0  0  0
   -0.9355   -1.0164    0.0000 C   0  0  0  0  0  0  0  0  0  0  0  0
   -1.3480   -0.3020    0.0000 O   0  0  0  0  0  0  0  0  0  0  0  0
   -0.1105   -1.0164    0.0000 N   0  0  0  0  0  0  0  0  0  0  0  0
    0.3020   -0.3020    0.0000 C   0  0  0  0  0  0  0  0  0  0  0  0
   -0.1105    0.4125    0.0000 C   0  0  0  0  0  0  0  0  0  0  0  0
    0.3020    1.1270    0.0000 C   0  0  0  0  0  0  0  0  0  0  0  0
    1.1270    1.1270    0.0000 O   0  0  0  0  0  0  0  0  0  0  0  0
    1.5395    0.4125    0.0000 C   0  0  0  0  0  0  0  0  0  0  0  0
    1.9520    1.1270    0.0000 C   0  0  0  0  0  0  0  0  0  0  0  0
    2.7770    1.1270    0.0000 C   0  0  0  0  0  0  0  0  0  0  0  0
    3.1895    0.4125    0.0000 N   0  0  0  0  0  0  0  0  0  0  0  0
    4.0145    0.4125    0.0000 C   0  0  0  0  0  0  0  0  0  0  0  0
    4.4270    1.1270    0.0000 C   0  0  0  0  0  0  0  0  0  0  0  0
    4.0145    1.8414    0.0000 C   0  0  0  0  0  0  0  0  0  0  0  0
    4.4270    2.5559    0.0000 C   0  0  0  0  0  0  0  0  0  0  0  0
    5.2520    2.5559    0.0000 C   0  0  0  0  0  0  0  0  0  0  0  0
    5.6645    1.8414    0.0000 C   0  0  0  0  0  0  0  0  0  0  0  0
    5.2520    1.1270    0.0000 C   0  0  0  0  0  0  0  0  0  0  0  0
    2.7770   -0.3020    0.0000 C   0  0  0  0  0  0  0  0  0  0  0  0
    1.9520   -0.3020    0.0000 C   0  0  0  0  0  0  0  0  0  0  0  0
    1.1270   -0.3020    0.0000 C   0  0  0  0  0  0  0  0  0  0  0  0
  1  2  1  0  0  0  0
  2  3  1  0  0  0  0
  2  4  1  0  0  0  0
  2  5  1  0  0  0  0
  5  6  1  0  0  0  0
  6  7  2  0  0  0  0
  6  8  1  0  0  0  0
  8  9  1  0  0  0  0
  9 10  1  0  0  0  0
 10 11  2  0  0  0  0
 11 12  1  0  0  0  0
 13 12  1  0  0  0  0
 13  8  1  0  0  0  0
 13 14  1  1  0  0  0
 14 15  2  0  0  0  0
 14 16  1  0  0  0  0
 16 17  1  0  0  0  0
 17 18  1  0  0  0  0
 18 19  1  0  0  0  0
 19 20  1  0  0  0  0
 20 21  1  0  0  0  0
 21 22  1  0  0  0  0
 22 23  1  0  0  0  0
 23 24  1  0  0  0  0
 24 25  1  0  0  0  0
 25 26  1  0  0  0  0
 26 27  2  0  0  0  0
 27 28  1  0  0  0  0
 28 29  2  0  0  0  0
 29 30  1  0  0  0  0
 30 31  2  0  0  0  0
 26 31  1  0  0  0  0
 24 32  1  0  0  0  0
 32 33  1  0  0  0  0
 21 33  1  0  0  0  0
 21 34  1  0  0  0  0
 17 34  1  0  0  0  0
M  END
> <ID>
CPD_707

$$$$
CPD_712
  Mrv1822 09091914012D          

 34 38  0  0  0  0            999 V2000
    1.1270   -1.7309    0.0000 O   0  0  0  0  0  0  0  0  0  0  0  0
    0.3020   -1.7309    0.0000 C   0  0  0  0  0  0  0  0  0  0  0  0
   -0.1105   -1.0164    0.0000 N   0  0  0  0  0  0  0  0  0  0  0  0
    0.3020   -0.3020    0.0000 C   0  0  0  0  0  0  0  0  0  0  0  0
   -0.1105    0.4125    0.0000 C   0  0  0  0  0  0  0  0  0  0  0  0
    0.3020    1.1270    0.0000 C   0  0  0  0  0  0  0  0  0  0  0  0
    1.1270    1.1270    0.0000 O   0  0  0  0  0  0  0  0  0  0  0  0
    1.5395    0.4125    0.0000 C   0  0  0  0  0  0  0  0  0  0  0  0
    1.9520    1.1270    0.0000 C   0  0  0  0  0  0  0  0  0  0  0  0
    2.7770    1.1270    0.0000 C   0  0  0  0  0  0  0  0  0  0  0  0
    3.1895    0.4125    0.0000 N   0  0  0  0  0  0  0  0  0  0  0  0
    4.0145    0.4125    0.0000 C   0  0  0  0  0  0  0  0  0  0  0  0
    4.4270   -0.3020    0.0000 C   0  0  0  0  0  0  0  0  0  0  0  0
    5.2520   -0.3020    0.0000 C   0  0  0  0  0  0  0  0  0  0  0  0
    5.6645   -1.0164    0.0000 C   0  0  0  0  0  0  0  0  0  0  0  0
    5.2520   -1.7309    0.0000 C   0  0  0  0  0  0  0  0  0  0  0  0
    4.4270   -1.7309    0.0000 C   0  0  0  0  0  0  0  0  0  0  0  0
    4.0145   -1.0164    0.0000 C   0  0  0  0  0  0  0  0  0  0  0  0
    2.7770   -0.3020    0.0000 C   0  0  0  0  0  0  0  0  0  0  0  0
    1.9520   -0.3020    0.0000 C   0  0  0  0  0  0  0  0  0  0  0  0
    1.1270   -0.3020    0.0000 C   0  0  0  0  0  0  0  0  0  0  0  0
   -0.1105   -2.4454    0.0000 C   0  0  0  0  0  0  0  0  0  0  0  0
   -0.2538   -3.2579    0.0000 C   0  0  0  0  0  0  0  0  0  0  0  0
   -1.0290   -3.5400    0.0000 C   0  0  0  0  0  0  0  0  0  0  0  0
   -1.6610   -3.0097    0.0000 C   0  0  0  0  0  0  0  0  0  0  0  0
   -1.5178   -2.1973    0.0000 N   0  0  0  0  0  0  0  0  0  0  0  0
   -0.7425   -1.9151    0.0000 C   0  0  0  0  0  0  0  0  0  0  0  0
   -0.5993   -1.1026    0.0000 O   0  0  0  0  0  0  0  0  0  0  0  0
    0.6647   -2.7276    0.0000 C   0  0  0  0  0  0  0  0  0  0  0  0
    1.2967   -2.1973    0.0000 C   0  0  0  0  0  0  0  0  0  0  0  0
    2.0720   -2.4794    0.0000 C   0  0  0  0  0  0  0  0  0  0  0  0
    2.2152   -3.2919    0.0000 C   0  0  0  0  0  0  0  0  0  0  0  0
    1.5832   -3.8222    0.0000 C   0  0  0  0  0  0  0  0  0  0  0  0
    0.8080   -3.5400    0.0000 C   0  0  0  0  0  0  0  0  0  0  0  0
  1  2  2  0  0  0  0
  2  3  1  0  0  0  0
  3  4  1  0  0  0  0
  4  5  1  0  0  0  0
  5  6  1  0  0  0  0
  6  7  1  0  0  0  0
  7  8  1  0  0  0  0
  8  9  1  0  0  0  0
  9 10  1  0  0  0  0
 10 11  1  0  0  0  0
 11 12  1  0  0  0  0
 12 13  1  0  0  0  0
 13 14  2  0  0  0  0
 14 15  1  0  0  0  0
 15 16  2  0  0  0  0
 16 17  1  0  0  0  0
 17 18  2  0  0  0  0
 13 18  1  0  0  0  0
 11 19  1  0  0  0  0
 19 20  1  0  0  0  0
  8 20  1  0  0  0  0
  8 21  1  0  0  0  0
  4 21  1  0  0  0  0
  2 22  1  0  0  0  0
 22 23  1  0  0  0  0
 23 24  1  0  0  0  0
 24 25  1  0  0  0  0
 25 26  1  0  0  0  0
 26 27  1  0  0  0  0
 22 27  1  0  0  0  0
 27 28  2  0  0  0  0
 22 29  1  0  0  0  0
 29 30  2  0  0  0  0
 30 31  1  0  0  0  0
 31 32  2  0  0  0  0
 32 33  1  0  0  0  0
 33 34  2  0  0  0  0
 29 34  1  0  0  0  0
M  END
> <ID>
CPD_712

$$$$
CPD_717
  Mrv1822 09091914012D          

 31 35  0  0  0  0            999 V2000
    3.2043    1.5986    0.0000 C   0  0  0  0  0  0  0  0  0  0  0  0
    2.3839    1.6848    0.0000 C   0  0  0  0  0  0  0  0  0  0  0  0
    2.0483    2.4385    0.0000 N   0  0  0  0  0  0  0  0  0  0  0  0
    1.2413    2.6100    0.0000 C   0  0  0  0  0  0  0  0  0  0  0  0
    1.1551    3.4305    0.0000 N   0  0  0  0  0  0  0  0  0  0  0  0
    1.9088    3.7661    0.0000 C   0  0  0  0  0  0  0  0  0  0  0  0
    2.4608    3.1530    0.0000 C   0  0  0  0  0  0  0  0  0  0  0  0
    3.2678    3.3245    0.0000 C   0  0  0  0  0  0  0  0  0  0  0  0
    3.5227    4.1091    0.0000 C   0  0  0  0  0  0  0  0  0  0  0  0
    2.9707    4.7222    0.0000 C   0  0  0  0  0  0  0  0  0  0  0  0
    2.1637    4.5507    0.0000 C   0  0  0  0  0  0  0  0  0  0  0  0
    0.6282    2.0580    0.0000 C   0  0  0  0  0  0  0  0  0  0  0  0
   -0.1787    2.2295    0.0000 C   0  0  0  0  0  0  0  0  0  0  0  0
   -0.5912    1.5150    0.0000 C   0  0  0  0  0  0  0  0  0  0  0  0
   -0.0392    0.9019    0.0000 C   0  0  0  0  0  0  0  0  0  0  0  0
    0.7145    1.2375    0.0000 N   0  0  0  0  0  0  0  0  0  0  0  0
    1.4289    0.8250    0.0000 C   0  0  0  0  0  0  0  0  0  0  0  0
    2.1434    1.2375    0.0000 O   0  0  0  0  0  0  0  0  0  0  0  0
    1.4289    0.0000    0.0000 C   0  0  0  0  0  0  0  0  0  0  0  0
    2.1434   -0.4125    0.0000 C   0  0  0  0  0  0  0  0  0  0  0  0
    2.8579    0.0000    0.0000 N   0  0  0  0  0  0  0  0  0  0  0  0
    3.5724   -0.4125    0.0000 C   0  0  0  0  0  0  0  0  0  0  0  0
    3.8545    0.3627    0.0000 C   0  0  0  0  0  0  0  0  0  0  0  0
    4.3848   -0.5558    0.0000 C   0  0  0  0  0  0  0  0  0  0  0  0
    3.5724   -1.2375    0.0000 C   0  0  0  0  0  0  0  0  0  0  0  0
    2.8579   -1.6500    0.0000 C   0  0  0  0  0  0  0  0  0  0  0  0
    2.8579   -2.4750    0.0000 C   0  0  0  0  0  0  0  0  0  0  0  0
    2.1434   -1.2375    0.0000 C   0  0  0  0  0  0  0  0  0  0  0  0
    1.4289   -1.6500    0.0000 C   0  0  0  0  0  0  0  0  0  0  0  0
    0.7145   -1.2375    0.0000 C   0  0  0  0  0  0  0  0  0  0  0  0
    0.7145   -0.4125    0.0000 C   0  0  0  0  0  0  0  0  0  0  0  0
  1  2  1  0  0  0  0
  2  3  1  0  0  0  0
  3  4  1  0  0  0  0
  4  5  2  0  0  0  0
  5  6  1  0  0  0  0
  6  7  2  0  0  0  0
  3  7  1  0  0  0  0
  7  8  1  0  0  0  0
  8  9  2  0  0  0  0
  9 10  1  0  0  0  0
 10 11  2  0  0  0  0
  6 11  1  0  0  0  0
  4 12  1  0  0  0  0
 12 13  1  0  0  0  0
 13 14  1  0  0  0  0
 14 15  1  0  0  0  0
 15 16  1  0  0  0  0
 12 16  1  0  0  0  0
 16 17  1  0  0  0  0
 17 18  2  0  0  0  0
 17 19  1  0  0  0  0
 19 20  2  0  0  0  0
 20 21  1  0  0  0  0
 21 22  1  0  0  0  0
 22 23  1  0  0  0  0
 22 24  1  0  0  0  0
 22 25  1  0  0  0  0
 25 26  1  0  0  0  0
 26 27  1  0  0  0  0
 26 28  1  0  0  0  0
 20 28  1  0  0  0  0
 28 29  2  0  0  0  0
 29 30  1  0  0  0  0
 30 31  2  0  0  0  0
 19 31  1  0  0  0  0
M  END
> <ID>
CPD_717

$$$$
CPD_722
  Mrv1822 09091914012D          

 31 35  0  0  0  0            999 V2000
    0.1536    1.3672    0.0000 C   0  0  0  0  0  0  0  0  0  0  0  0
   -0.3984    0.7541    0.0000 C   0  0  0  0  0  0  0  0  0  0  0  0
   -0.1435   -0.0305    0.0000 N   0  0  0  0  0  0  0  0  0  0  0  0
   -0.6284   -0.6979    0.0000 C   0  0  0  0  0  0  0  0  0  0  0  0
   -0.1435   -1.3654    0.0000 N   0  0  0  0  0  0  0  0  0  0  0  0
    0.6411   -1.1104    0.0000 C   0  0  0  0  0  0  0  0  0  0  0  0
    0.6411   -0.2854    0.0000 C   0  0  0  0  0  0  0  0  0  0  0  0
    1.3556    0.1271    0.0000 C   0  0  0  0  0  0  0  0  0  0  0  0
    2.0701   -0.2854    0.0000 C   0  0  0  0  0  0  0  0  0  0  0  0
    2.0701   -1.1104    0.0000 C   0  0  0  0  0  0  0  0  0  0  0  0
    1.3556   -1.5229    0.0000 C   0  0  0  0  0  0  0  0  0  0  0  0
   -1.4534   -0.6979    0.0000 C   0  0  0  0  0  0  0  0  0  0  0  0
   -1.9384   -1.3654    0.0000 C   0  0  0  0  0  0  0  0  0  0  0  0
   -2.7230   -1.1104    0.0000 C   0  0  0  0  0  0  0  0  0  0  0  0
   -2.7230   -0.2854    0.0000 C   0  0  0  0  0  0  0  0  0  0  0  0
   -1.9384   -0.0305    0.0000 N   0  0  0  0  0  0  0  0  0  0  0  0
   -1.6834    0.7541    0.0000 C   0  0  0  0  0  0  0  0  0  0  0  0
   -0.8764    0.9256    0.0000 O   0  0  0  0  0  0  0  0  0  0  0  0
   -2.2354    1.3672    0.0000 C   0  0  0  0  0  0  0  0  0  0  0  0
   -1.9805    2.1518    0.0000 C   0  0  0  0  0  0  0  0  0  0  0  0
   -2.5325    2.7649    0.0000 C   0  0  0  0  0  0  0  0  0  0  0  0
   -3.3395    2.5934    0.0000 C   0  0  0  0  0  0  0  0  0  0  0  0
   -3.5945    1.8088    0.0000 C   0  0  0  0  0  0  0  0  0  0  0  0
   -3.0424    1.1957    0.0000 C   0  0  0  0  0  0  0  0  0  0  0  0
   -3.2974    0.4111    0.0000 O   0  0  0  0  0  0  0  0  0  0  0  0
   -3.8915    3.2065    0.0000 C   0  0  0  0  0  0  0  0  0  0  0  0
   -4.6985    3.0350    0.0000 C   0  0  0  0  0  0  0  0  0  0  0  0
   -5.2505    3.6481    0.0000 C   0  0  0  0  0  0  0  0  0  0  0  0
   -4.9956    4.4327    0.0000 C   0  0  0  0  0  0  0  0  0  0  0  0
   -4.1886    4.6042    0.0000 C   0  0  0  0  0  0  0  0  0  0  0  0
   -3.6366    3.9911    0.0000 C   0  0  0  0  0  0  0  0  0  0  0  0
  1  2  1  0  0  0  0
  2  3  1  0  0  0  0
  3  4  1  0  0  0  0
  4  5  2  0  0  0  0
  5  6  1  0  0  0  0
  6  7  2  0  0  0  0
  3  7  1  0  0  0  0
  7  8  1  0  0  0  0
  8  9  2  0  0  0  0
  9 10  1  0  0  0  0
 10 11  2  0  0  0  0
  6 11  1  0  0  0  0
  4 12  1  0  0  0  0
 12 13  1  0  0  0  0
 13 14  1  0  0  0  0
 14 15  1  0  0  0  0
 15 16  1  0  0  0  0
 12 16  1  0  0  0  0
 16 17  1  0  0  0  0
 17 18  2  0  0  0  0
 17 19  1  0  0  0  0
 19 20  2  0  0  0  0
 20 21  1  0  0  0  0
 21 22  2  0  0  0  0
 22 23  1  0  0  0  0
 23 24  2  0  0  0  0
 19 24  1  0  0  0  0
 24 25  1  0  0  0  0
 22 26  1  0  0  0  0
 26 27  2  0  0  0  0
 27 28  1  0  0  0  0
 28 29  2  0  0  0  0
 29 30  1  0  0  0  0
 30 31  2  0  0  0  0
 26 31  1  0  0  0  0
M  END
> <ID>
CPD_722

$$$$
CPD_727
  Mrv1822 09091914012D          

 28 32  0  0  0  0            999 V2000
    2.5668   -1.2264    0.0000 C   0  0  0  0  0  0  0  0  0  0  0  0
    3.0517   -0.5589    0.0000 C   0  0  0  0  0  0  0  0  0  0  0  0
    3.8722   -0.6452    0.0000 N   0  0  0  0  0  0  0  0  0  0  0  0
    4.4242   -0.0321    0.0000 C   0  0  0  0  0  0  0  0  0  0  0  0
    5.1779   -0.3676    0.0000 N   0  0  0  0  0  0  0  0  0  0  0  0
    5.0916   -1.1881    0.0000 C   0  0  0  0  0  0  0  0  0  0  0  0
    4.2847   -1.3597    0.0000 C   0  0  0  0  0  0  0  0  0  0  0  0
    4.0297   -2.1443    0.0000 C   0  0  0  0  0  0  0  0  0  0  0  0
    4.5818   -2.7574    0.0000 C   0  0  0  0  0  0  0  0  0  0  0  0
    5.3887   -2.5858    0.0000 C   0  0  0  0  0  0  0  0  0  0  0  0
    5.6437   -1.8012    0.0000 C   0  0  0  0  0  0  0  0  0  0  0  0
    4.2527    0.7749    0.0000 C   0  0  0  0  0  0  0  0  0  0  0  0
    4.8047    1.3880    0.0000 C   0  0  0  0  0  0  0  0  0  0  0  0
    4.3922    2.1025    0.0000 C   0  0  0  0  0  0  0  0  0  0  0  0
    3.5852    1.9309    0.0000 C   0  0  0  0  0  0  0  0  0  0  0  0
    3.4990    1.1104    0.0000 N   0  0  0  0  0  0  0  0  0  0  0  0
    2.7845    0.6979    0.0000 C   0  0  0  0  0  0  0  0  0  0  0  0
    2.7845   -0.1271    0.0000 O   0  0  0  0  0  0  0  0  0  0  0  0
    2.0701    1.1104    0.0000 C   0  0  0  0  0  0  0  0  0  0  0  0
    1.3556    0.6979    0.0000 C   0  0  0  0  0  0  0  0  0  0  0  0
    0.6411    1.1104    0.0000 C   0  0  0  0  0  0  0  0  0  0  0  0
    0.6411    1.9354    0.0000 C   0  0  0  0  0  0  0  0  0  0  0  0
   -0.1435    2.1904    0.0000 C   0  0  0  0  0  0  0  0  0  0  0  0
   -0.6284    1.5229    0.0000 C   0  0  0  0  0  0  0  0  0  0  0  0
   -0.1435    0.8555    0.0000 S   0  0  0  0  0  0  0  0  0  0  0  0
    1.3556    2.3479    0.0000 C   0  0  0  0  0  0  0  0  0  0  0  0
    1.3556    3.1729    0.0000 O   0  0  0  0  0  0  0  0  0  0  0  0
    2.0701    1.9354    0.0000 C   0  0  0  0  0  0  0  0  0  0  0  0
  1  2  1  0  0  0  0
  2  3  1  0  0  0  0
  3  4  1  0  0  0  0
  4  5  2  0  0  0  0
  5  6  1  0  0  0  0
  6  7  2  0  0  0  0
  3  7  1  0  0  0  0
  7  8  1  0  0  0  0
  8  9  2  0  0  0  0
  9 10  1  0  0  0  0
 10 11  2  0  0  0  0
  6 11  1  0  0  0  0
  4 12  1  0  0  0  0
 12 13  1  0  0  0  0
 13 14  1  0  0  0  0
 14 15  1  0  0  0  0
 15 16  1  0  0  0  0
 12 16  1  0  0  0  0
 16 17  1  0  0  0  0
 17 18  2  0  0  0  0
 17 19  1  0  0  0  0
 19 20  2  0  0  0  0
 20 21  1  0  0  0  0
 21 22  2  0  0  0  0
 22 23  1  0  0  0  0
 23 24  2  0  0  0  0
 24 25  1  0  0  0  0
 21 25  1  0  0  0  0
 22 26  1  0  0  0  0
 26 27  1  0  0  0  0
 26 28  2  0  0  0  0
 19 28  1  0  0  0  0
M  END
> <ID>
CPD_727

$$$$
CPD_732
  Mrv1822 09091914012D          

 36 39  0  0  0  0            999 V2000
    1.4289    0.0000    0.0000 C   0  0  0  0  0  0  0  0  0  0  0  0
    2.1434   -0.4125    0.0000 C   0  0  0  0  0  0  0  0  0  0  0  0
    2.1434   -1.2375    0.0000 C   0  0  0  0  0  0  0  0  0  0  0  0
    2.8579   -1.6500    0.0000 C   0  0  0  0  0  0  0  0  0  0  0  0
    2.8579   -2.4750    0.0000 C   0  0  0  0  0  0  0  0  0  0  0  0
    2.1434   -2.8875    0.0000 C   0  0  0  0  0  0  0  0  0  0  0  0
    1.4289   -2.4750    0.0000 C   0  0  0  0  0  0  0  0  0  0  0  0
    1.4289   -1.6500    0.0000 C   0  0  0  0  0  0  0  0  0  0  0  0
    2.1434   -3.7125    0.0000 N   0  0  0  0  0  0  0  0  0  0  0  0
    2.8579   -4.1250    0.0000 C   0  0  0  0  0  0  0  0  0  0  0  0
    3.5724   -3.7125    0.0000 O   0  0  0  0  0  0  0  0  0  0  0  0
    2.8579   -4.9500    0.0000 C   0  0  0  0  0  0  0  0  0  0  0  0
    3.5724   -5.3625    0.0000 N   0  0  0  0  0  0  0  0  0  0  0  0
    3.5724   -6.1875    0.0000 C   0  0  0  0  0  0  0  0  0  0  0  0
    2.8579   -6.6000    0.0000 C   0  0  0  0  0  0  0  0  0  0  0  0
    2.1434   -6.1875    0.0000 C   0  0  0  0  0  0  0  0  0  0  0  0
    2.1434   -5.3625    0.0000 C   0  0  0  0  0  0  0  0  0  0  0  0
    4.2868   -6.6000    0.0000 C   0  0  0  0  0  0  0  0  0  0  0  0
    5.0013   -6.1875    0.0000 C   0  0  0  0  0  0  0  0  0  0  0  0
    5.7158   -5.7750    0.0000 N   0  0  0  0  0  0  0  0  0  0  0  0
    4.2868   -7.4250    0.0000 C   0  0  0  0  0  0  0  0  0  0  0  0
    5.0013   -7.8375    0.0000 C   0  0  0  0  0  0  0  0  0  0  0  0
    5.0013   -8.6625    0.0000 C   0  0  0  0  0  0  0  0  0  0  0  0
    4.2868   -9.0750    0.0000 C   0  0  0  0  0  0  0  0  0  0  0  0
    3.5724   -8.6625    0.0000 C   0  0  0  0  0  0  0  0  0  0  0  0
    3.5724   -7.8375    0.0000 C   0  0  0  0  0  0  0  0  0  0  0  0
    1.4289   -4.1250    0.0000 C   0  0  0  0  0  0  0  0  0  0  0  0
    1.4289   -4.9500    0.0000 N   0  0  0  0  0  0  0  0  0  0  0  0
    0.7145   -5.3625    0.0000 C   0  0  0  0  0  0  0  0  0  0  0  0
    0.7145   -6.1875    0.0000 C   0  0  0  0  0  0  0  0  0  0  0  0
   -0.0000   -4.9500    0.0000 C   0  0  0  0  0  0  0  0  0  0  0  0
   -0.7145   -5.3625    0.0000 C   0  0  0  0  0  0  0  0  0  0  0  0
   -1.4289   -4.9500    0.0000 C   0  0  0  0  0  0  0  0  0  0  0  0
   -0.0000   -4.1250    0.0000 C   0  0  0  0  0  0  0  0  0  0  0  0
   -0.7145   -3.7125    0.0000 O   0  0  0  0  0  0  0  0  0  0  0  0
    0.7145   -3.7125    0.0000 N   0  0  0  0  0  0  0  0  0  0  0  0
  1  2  1  0  0  0  0
  2  3  1  0  0  0  0
  3  4  2  0  0  0  0
  4  5  1  0  0  0  0
  5  6  2  0  0  0  0
  6  7  1  0  0  0  0
  7  8  2  0  0  0  0
  3  8  1  0  0  0  0
  6  9  1  0  0  0  0
  9 10  1  0  0  0  0
 10 11  2  0  0  0  0
 10 12  1  0  0  0  0
 12 13  2  0  0  0  0
 13 14  1  0  0  0  0
 14 15  2  0  0  0  0
 15 16  1  0  0  0  0
 16 17  2  0  0  0  0
 12 17  1  0  0  0  0
 14 18  1  0  0  0  0
 18 19  1  0  0  0  0
 19 20  3  0  0  0  0
 18 21  1  0  0  0  0
 21 22  2  0  0  0  0
 22 23  1  0  0  0  0
 23 24  2  0  0  0  0
 24 25  1  0  0  0  0
 25 26  2  0  0  0  0
 21 26  1  0  0  0  0
  9 27  1  0  0  0  0
 27 28  2  0  0  0  0
 28 29  1  0  0  0  0
 29 30  1  0  0  0  0
 29 31  2  0  0  0  0
 31 32  1  0  0  0  0
 32 33  1  0  0  0  0
 31 34  1  0  0  0  0
 34 35  2  0  0  0  0
 34 36  1  0  0  0  0
 27 36  1  0  0  0  0
M  END
> <ID>
CPD_732

$$$$
CPD_737
  Mrv1822 09091914012D          

 33 36  0  0  0  0            999 V2000
   -5.7707    0.2230    0.0000 C   0  0  0  0  0  0  0  0  0  0  0  0
   -5.1033    0.7079    0.0000 C   0  0  0  0  0  0  0  0  0  0  0  0
   -4.3496    0.3724    0.0000 C   0  0  0  0  0  0  0  0  0  0  0  0
   -3.6821    0.8573    0.0000 C   0  0  0  0  0  0  0  0  0  0  0  0
   -2.9285    0.5218    0.0000 C   0  0  0  0  0  0  0  0  0  0  0  0
   -2.8422   -0.2987    0.0000 C   0  0  0  0  0  0  0  0  0  0  0  0
   -3.5097   -0.7837    0.0000 C   0  0  0  0  0  0  0  0  0  0  0  0
   -4.2633   -0.4481    0.0000 C   0  0  0  0  0  0  0  0  0  0  0  0
   -2.0886   -0.6343    0.0000 N   0  0  0  0  0  0  0  0  0  0  0  0
   -1.4211   -0.1494    0.0000 C   0  0  0  0  0  0  0  0  0  0  0  0
   -1.5074    0.6711    0.0000 O   0  0  0  0  0  0  0  0  0  0  0  0
   -0.6674   -0.4849    0.0000 C   0  0  0  0  0  0  0  0  0  0  0  0
   -0.0000    0.0000    0.0000 N   0  0  0  0  0  0  0  0  0  0  0  0
   -0.0000    0.8250    0.0000 C   0  0  0  0  0  0  0  0  0  0  0  0
   -0.6674    1.3099    0.0000 O   0  0  0  0  0  0  0  0  0  0  0  0
    0.7846    1.0799    0.0000 C   0  0  0  0  0  0  0  0  0  0  0  0
    1.2695    0.4125    0.0000 C   0  0  0  0  0  0  0  0  0  0  0  0
    1.7545    1.0799    0.0000 C   0  0  0  0  0  0  0  0  0  0  0  0
    2.5391    0.8250    0.0000 C   0  0  0  0  0  0  0  0  0  0  0  0
    2.5391   -0.0000    0.0000 C   0  0  0  0  0  0  0  0  0  0  0  0
    1.7545   -0.2549    0.0000 C   0  0  0  0  0  0  0  0  0  0  0  0
    0.7846   -0.2549    0.0000 C   0  0  0  0  0  0  0  0  0  0  0  0
    1.0396   -1.0396    0.0000 O   0  0  0  0  0  0  0  0  0  0  0  0
   -2.0023   -1.4548    0.0000 C   0  0  0  0  0  0  0  0  0  0  0  0
   -1.2486   -1.7903    0.0000 N   0  0  0  0  0  0  0  0  0  0  0  0
   -1.1624   -2.6108    0.0000 C   0  0  0  0  0  0  0  0  0  0  0  0
   -0.4087   -2.9464    0.0000 C   0  0  0  0  0  0  0  0  0  0  0  0
   -1.8298   -3.0957    0.0000 C   0  0  0  0  0  0  0  0  0  0  0  0
   -1.7436   -3.9162    0.0000 C   0  0  0  0  0  0  0  0  0  0  0  0
   -2.4110   -4.4011    0.0000 C   0  0  0  0  0  0  0  0  0  0  0  0
   -2.5835   -2.7602    0.0000 C   0  0  0  0  0  0  0  0  0  0  0  0
   -3.2510   -3.2451    0.0000 O   0  0  0  0  0  0  0  0  0  0  0  0
   -2.6698   -1.9397    0.0000 N   0  0  0  0  0  0  0  0  0  0  0  0
  1  2  1  0  0  0  0
  2  3  1  0  0  0  0
  3  4  2  0  0  0  0
  4  5  1  0  0  0  0
  5  6  2  0  0  0  0
  6  7  1  0  0  0  0
  7  8  2  0  0  0  0
  3  8  1  0  0  0  0
  6  9  1  0  0  0  0
  9 10  1  0  0  0  0
 10 11  2  0  0  0  0
 10 12  1  0  0  0  0
 12 13  1  0  0  0  0
 13 14  1  0  0  0  0
 14 15  2  0  0  0  0
 14 16  1  0  0  0  0
 16 17  1  0  0  0  0
 17 18  1  0  0  0  0
 18 19  1  0  0  0  0
 19 20  1  0  0  0  0
 20 21  1  0  0  0  0
 17 21  1  0  0  0  0
 17 22  1  0  0  0  0
 13 22  1  0  0  0  0
 22 23  2  0  0  0  0
  9 24  1  0  0  0  0
 24 25  2  0  0  0  0
 25 26  1  0  0  0  0
 26 27  1  0  0  0  0
 26 28  2  0  0  0  0
 28 29  1  0  0  0  0
 29 30  1  0  0  0  0
 28 31  1  0  0  0  0
 31 32  2  0  0  0  0
 31 33  1  0  0  0  0
 24 33  1  0  0  0  0
M  END
> <ID>
CPD_737

$$$$
CPD_742
  Mrv1822 09091914012D          

 23 24  0  0  0  0            999 V2000
    1.4289    0.0000    0.0000 C   0  0  0  0  0  0  0  0  0  0  0  0
    2.1434   -0.4125    0.0000 C   0  0  0  0  0  0  0  0  0  0  0  0
    2.1434   -1.2375    0.0000 C   0  0  0  0  0  0  0  0  0  0  0  0
    2.8579   -1.6500    0.0000 C   0  0  0  0  0  0  0  0  0  0  0  0
    2.8579   -2.4750    0.0000 C   0  0  0  0  0  0  0  0  0  0  0  0
    2.1434   -2.8875    0.0000 C   0  0  0  0  0  0  0  0  0  0  0  0
    1.4289   -2.4750    0.0000 C   0  0  0  0  0  0  0  0  0  0  0  0
    1.4289   -1.6500    0.0000 C   0  0  0  0  0  0  0  0  0  0  0  0
    2.1434   -3.7125    0.0000 N   0  0  0  0  0  0  0  0  0  0  0  0
    2.8579   -4.1250    0.0000 C   0  0  0  0  0  0  0  0  0  0  0  0
    2.8579   -4.9500    0.0000 O   0  0  0  0  0  0  0  0  0  0  0  0
    3.5724   -3.7125    0.0000 C   0  0  0  0  0  0  0  0  0  0  0  0
    4.2868   -4.1250    0.0000 O   0  0  0  0  0  0  0  0  0  0  0  0
    1.4289   -4.1250    0.0000 C   0  0  0  0  0  0  0  0  0  0  0  0
    1.4289   -4.9500    0.0000 N   0  0  0  0  0  0  0  0  0  0  0  0
    0.7145   -5.3625    0.0000 C   0  0  0  0  0  0  0  0  0  0  0  0
    0.7145   -6.1875    0.0000 C   0  0  0  0  0  0  0  0  0  0  0  0
   -0.0000   -4.9500    0.0000 C   0  0  0  0  0  0  0  0  0  0  0  0
   -0.7145   -5.3625    0.0000 C   0  0  0  0  0  0  0  0  0  0  0  0
   -0.7145   -6.1875    0.0000 C   0  0  0  0  0  0  0  0  0  0  0  0
   -0.0000   -4.1250    0.0000 C   0  0  0  0  0  0  0  0  0  0  0  0
   -0.7145   -3.7125    0.0000 O   0  0  0  0  0  0  0  0  0  0  0  0
    0.7145   -3.7125    0.0000 N   0  0  0  0  0  0  0  0  0  0  0  0
  1  2  1  0  0  0  0
  2  3  1  0  0  0  0
  3  4  2  0  0  0  0
  4  5  1  0  0  0  0
  5  6  2  0  0  0  0
  6  7  1  0  0  0  0
  7  8  2  0  0  0  0
  3  8  1  0  0  0  0
  6  9  1  0  0  0  0
  9 10  1  0  0  0  0
 10 11  2  0  0  0  0
 10 12  1  0  0  0  0
 12 13  1  0  0  0  0
  9 14  1  0  0  0  0
 14 15  2  0  0  0  0
 15 16  1  0  0  0  0
 16 17  1  0  0  0  0
 16 18  2  0  0  0  0
 18 19  1  0  0  0  0
 19 20  1  0  0  0  0
 18 21  1  0  0  0  0
 21 22  2  0  0  0  0
 21 23  1  0  0  0  0
 14 23  1  0  0  0  0
M  END
> <ID>
CPD_742

$$$$
CPD_747
  Mrv1822 09091914012D          

 32 35  0  0  0  0            999 V2000
   -4.2868    0.8250    0.0000 C   0  0  0  0  0  0  0  0  0  0  0  0
   -3.5724    1.2375    0.0000 C   0  0  0  0  0  0  0  0  0  0  0  0
   -3.5724    2.0625    0.0000 C   0  0  0  0  0  0  0  0  0  0  0  0
   -2.8579    0.8250    0.0000 C   0  0  0  0  0  0  0  0  0  0  0  0
   -2.1434    1.2375    0.0000 C   0  0  0  0  0  0  0  0  0  0  0  0
   -1.4289    0.8250    0.0000 C   0  0  0  0  0  0  0  0  0  0  0  0
   -1.4289    0.0000    0.0000 C   0  0  0  0  0  0  0  0  0  0  0  0
   -2.1434   -0.4125    0.0000 C   0  0  0  0  0  0  0  0  0  0  0  0
   -2.8579    0.0000    0.0000 C   0  0  0  0  0  0  0  0  0  0  0  0
   -0.7145   -0.4125    0.0000 C   0  0  0  0  0  0  0  0  0  0  0  0
   -0.7145   -1.2375    0.0000 C   0  0  0  0  0  0  0  0  0  0  0  0
    0.0000   -1.6500    0.0000 C   0  0  0  0  0  0  0  0  0  0  0  0
    0.0000   -2.4750    0.0000 O   0  0  0  0  0  0  0  0  0  0  0  0
    0.7145   -1.2375    0.0000 C   0  0  0  0  0  0  0  0  0  0  0  0
    0.7145   -0.4125    0.0000 C   0  0  0  0  0  0  0  0  0  0  0  0
    0.0000   -0.0000    0.0000 C   0  0  0  0  0  0  0  0  0  0  0  0
    1.4289   -0.0000    0.0000 N   0  0  0  0  0  0  0  0  0  0  0  0
    2.1434   -0.4125    0.0000 C   0  0  0  0  0  0  0  0  0  0  0  0
    2.8579   -0.0000    0.0000 N   0  0  0  0  0  0  0  0  0  0  0  0
    3.5724   -0.4125    0.0000 C   0  0  0  0  0  0  0  0  0  0  0  0
    3.5724   -1.2375    0.0000 O   0  0  0  0  0  0  0  0  0  0  0  0
    4.2868   -0.0000    0.0000 C   0  0  0  0  0  0  0  0  0  0  0  0
    5.0013   -0.4125    0.0000 C   0  0  0  0  0  0  0  0  0  0  0  0
    5.7158   -0.0000    0.0000 C   0  0  0  0  0  0  0  0  0  0  0  0
    5.7158    0.8250    0.0000 O   0  0  0  0  0  0  0  0  0  0  0  0
    6.4302   -0.4125    0.0000 N   0  0  0  0  0  0  0  0  0  0  0  0
    6.4302   -1.2375    0.0000 C   0  0  0  0  0  0  0  0  0  0  0  0
    5.7158   -1.6500    0.0000 N   0  0  0  0  0  0  0  0  0  0  0  0
    5.0013   -1.2375    0.0000 C   0  0  0  0  0  0  0  0  0  0  0  0
    4.2868   -1.6500    0.0000 O   0  0  0  0  0  0  0  0  0  0  0  0
    2.1434   -1.2375    0.0000 N   0  0  0  0  0  0  0  0  0  0  0  0
    1.4289   -1.6500    0.0000 C   0  0  0  0  0  0  0  0  0  0  0  0
  1  2  1  0  0  0  0
  2  3  1  0  0  0  0
  2  4  1  0  0  0  0
  4  5  2  0  0  0  0
  5  6  1  0  0  0  0
  6  7  2  0  0  0  0
  7  8  1  0  0  0  0
  8  9  2  0  0  0  0
  4  9  1  0  0  0  0
  7 10  1  0  0  0  0
 10 11  1  0  0  0  0
 11 12  1  0  0  0  0
 12 13  2  0  0  0  0
 12 14  1  0  0  0  0
 14 15  2  0  0  0  0
 15 16  1  0  0  0  0
 10 16  1  0  0  0  0
 15 17  1  0  0  0  0
 17 18  2  0  0  0  0
 18 19  1  0  0  0  0
 19 20  1  0  0  0  0
 20 21  2  0  0  0  0
 20 22  1  0  0  0  0
 22 23  1  0  0  0  0
 23 24  2  0  0  0  0
 24 25  1  0  0  0  0
 24 26  1  0  0  0  0
 26 27  2  0  0  0  0
 27 28  1  0  0  0  0
 28 29  2  0  0  0  0
 23 29  1  0  0  0  0
 29 30  1  0  0  0  0
 18 31  1  0  0  0  0
 31 32  2  0  0  0  0
 14 32  1  0  0  0  0
M  END
> <ID>
CPD_747

$$$$
CPD_752
  Mrv1822 09091914012D          

 37 41  0  0  0  0            999 V2000
   -4.2868    0.8250    0.0000 C   0  0  0  0  0  0  0  0  0  0  0  0
   -3.5724    1.2375    0.0000 C   0  0  0  0  0  0  0  0  0  0  0  0
   -3.5724    2.0625    0.0000 C   0  0  0  0  0  0  0  0  0  0  0  0
   -2.8579    0.8250    0.0000 C   0  0  0  0  0  0  0  0  0  0  0  0
   -2.1434    1.2375    0.0000 C   0  0  0  0  0  0  0  0  0  0  0  0
   -1.4289    0.8250    0.0000 C   0  0  0  0  0  0  0  0  0  0  0  0
   -1.4289    0.0000    0.0000 C   0  0  0  0  0  0  0  0  0  0  0  0
   -2.1434   -0.4125    0.0000 C   0  0  0  0  0  0  0  0  0  0  0  0
   -2.8579    0.0000    0.0000 C   0  0  0  0  0  0  0  0  0  0  0  0
   -0.7145   -0.4125    0.0000 C   0  0  0  0  0  0  0  0  0  0  0  0
   -0.7145   -1.2375    0.0000 C   0  0  0  0  0  0  0  0  0  0  0  0
    0.0000   -1.6500    0.0000 C   0  0  0  0  0  0  0  0  0  0  0  0
    0.0000   -2.4750    0.0000 O   0  0  0  0  0  0  0  0  0  0  0  0
    0.7145   -1.2375    0.0000 C   0  0  0  0  0  0  0  0  0  0  0  0
    0.7145   -0.4125    0.0000 C   0  0  0  0  0  0  0  0  0  0  0  0
    0.0000   -0.0000    0.0000 C   0  0  0  0  0  0  0  0  0  0  0  0
    1.4289   -0.0000    0.0000 N   0  0  0  0  0  0  0  0  0  0  0  0
    2.1434   -0.4125    0.0000 C   0  0  0  0  0  0  0  0  0  0  0  0
    2.8579   -0.0000    0.0000 N   0  0  0  0  0  0  0  0  0  0  0  0
    3.5724   -0.4125    0.0000 C   0  0  0  0  0  0  0  0  0  0  0  0
    3.5724   -1.2375    0.0000 O   0  0  0  0  0  0  0  0  0  0  0  0
    4.2868   -0.0000    0.0000 C   0  0  0  0  0  0  0  0  0  0  0  0
    4.2868    0.8250    0.0000 C   0  0  0  0  0  0  0  0  0  0  0  0
    5.0013    1.2375    0.0000 C   0  0  0  0  0  0  0  0  0  0  0  0
    5.7158    0.8250    0.0000 C   0  0  0  0  0  0  0  0  0  0  0  0
    5.7158   -0.0000    0.0000 N   0  0  0  0  0  0  0  0  0  0  0  0
    6.4302   -0.4125    0.0000 C   0  0  0  0  0  0  0  0  0  0  0  0
    6.4302   -1.2375    0.0000 C   0  0  0  0  0  0  0  0  0  0  0  0
    7.1447   -1.6500    0.0000 C   0  0  0  0  0  0  0  0  0  0  0  0
    7.1447   -2.4750    0.0000 C   0  0  0  0  0  0  0  0  0  0  0  0
    6.4302   -2.8875    0.0000 C   0  0  0  0  0  0  0  0  0  0  0  0
    6.4302   -3.7125    0.0000 F   0  0  0  0  0  0  0  0  0  0  0  0
    5.7158   -2.4750    0.0000 C   0  0  0  0  0  0  0  0  0  0  0  0
    5.7158   -1.6500    0.0000 C   0  0  0  0  0  0  0  0  0  0  0  0
    5.0013   -0.4125    0.0000 C   0  0  0  0  0  0  0  0  0  0  0  0
    2.1434   -1.2375    0.0000 N   0  0  0  0  0  0  0  0  0  0  0  0
    1.4289   -1.6500    0.0000 C   0  0  0  0  0  0  0  0  0  0  0  0
  1  2  1  0  0  0  0
  2  3  1  0  0  0  0
  2  4  1  0  0  0  0
  4  5  2  0  0  0  0
  5  6  1  0  0  0  0
  6  7  2  0  0  0  0
  7  8  1  0  0  0  0
  8  9  2  0  0  0  0
  4  9  1  0  0  0  0
  7 10  1  0  0  0  0
 10 11  1  0  0  0  0
 11 12  1  0  0  0  0
 12 13  2  0  0  0  0
 12 14  1  0  0  0  0
 14 15  2  0  0  0  0
 15 16  1  0  0  0  0
 10 16  1  0  0  0  0
 15 17  1  0  0  0  0
 17 18  2  0  0  0  0
 18 19  1  0  0  0  0
 19 20  1  0  0  0  0
 20 21  2  0  0  0  0
 20 22  1  0  0  0  0
 22 23  1  0  0  0  0
 23 24  1  0  0  0  0
 24 25  1  0  0  0  0
 25 26  1  0  0  0  0
 26 27  1  0  0  0  0
 27 28  1  0  0  0  0
 28 29  2  0  0  0  0
 29 30  1  0  0  0  0
 30 31  2  0  0  0  0
 31 32  1  0  0  0  0
 31 33  1  0  0  0  0
 33 34  2  0  0  0  0
 28 34  1  0  0  0  0
 26 35  1  0  0  0  0
 22 35  1  0  0  0  0
 18 36  1  0  0  0  0
 36 37  2  0  0  0  0
 14 37  1  0  0  0  0
M  END
> <ID>
CPD_752

$$$$
CPD_757
  Mrv1822 09091914012D          

 27 30  0  0  0  0            999 V2000
   -1.4289   -2.4750    0.0000 O   0  0  0  0  0  0  0  0  0  0  0  0
   -1.4289   -1.6500    0.0000 C   0  0  0  0  0  0  0  0  0  0  0  0
   -2.1434   -1.2375    0.0000 N   0  0  0  0  0  0  0  0  0  0  0  0
   -2.8579   -1.6500    0.0000 C   0  0  0  0  0  0  0  0  0  0  0  0
   -2.8579   -2.4750    0.0000 C   0  0  0  0  0  0  0  0  0  0  0  0
   -3.5724   -2.8875    0.0000 C   0  0  0  0  0  0  0  0  0  0  0  0
   -3.5724   -3.7125    0.0000 O   0  0  0  0  0  0  0  0  0  0  0  0
   -4.2868   -2.4750    0.0000 N   0  0  0  0  0  0  0  0  0  0  0  0
   -4.2868   -1.6500    0.0000 C   0  0  0  0  0  0  0  0  0  0  0  0
   -5.0013   -1.2375    0.0000 N   0  0  0  0  0  0  0  0  0  0  0  0
   -5.7158   -1.6500    0.0000 C   0  0  0  0  0  0  0  0  0  0  0  0
   -5.7158   -2.4750    0.0000 C   0  0  0  0  0  0  0  0  0  0  0  0
   -6.4302   -2.8875    0.0000 C   0  0  0  0  0  0  0  0  0  0  0  0
   -7.1447   -2.4750    0.0000 C   0  0  0  0  0  0  0  0  0  0  0  0
   -7.1447   -1.6500    0.0000 C   0  0  0  0  0  0  0  0  0  0  0  0
   -6.4302   -1.2375    0.0000 C   0  0  0  0  0  0  0  0  0  0  0  0
   -3.5724   -1.2375    0.0000 N   0  0  0  0  0  0  0  0  0  0  0  0
   -0.7145   -1.2375    0.0000 C   0  0  0  0  0  0  0  0  0  0  0  0
    0.0000   -1.6500    0.0000 N   0  0  0  0  0  0  0  0  0  0  0  0
    0.7145   -1.2375    0.0000 C   0  0  0  0  0  0  0  0  0  0  0  0
    0.7145   -0.4125    0.0000 C   0  0  0  0  0  0  0  0  0  0  0  0
    1.4289   -0.0000    0.0000 C   0  0  0  0  0  0  0  0  0  0  0  0
    2.1434   -0.4125    0.0000 C   0  0  0  0  0  0  0  0  0  0  0  0
    2.1434   -1.2375    0.0000 C   0  0  0  0  0  0  0  0  0  0  0  0
    1.4289   -1.6500    0.0000 N   0  0  0  0  0  0  0  0  0  0  0  0
    0.0000   -0.0000    0.0000 C   0  0  0  0  0  0  0  0  0  0  0  0
   -0.7145   -0.4125    0.0000 C   0  0  0  0  0  0  0  0  0  0  0  0
  1  2  2  0  0  0  0
  2  3  1  0  0  0  0
  3  4  1  0  0  0  0
  4  5  2  0  0  0  0
  5  6  1  0  0  0  0
  6  7  2  0  0  0  0
  6  8  1  0  0  0  0
  8  9  1  0  0  0  0
  9 10  1  0  0  0  0
 10 11  1  0  0  0  0
 11 12  1  0  0  0  0
 12 13  1  0  0  0  0
 13 14  1  0  0  0  0
 14 15  1  0  0  0  0
 15 16  1  0  0  0  0
 11 16  1  0  0  0  0
  9 17  2  0  0  0  0
  4 17  1  0  0  0  0
  2 18  1  0  0  0  0
 18 19  2  0  0  0  0
 19 20  1  0  0  0  0
 20 21  2  0  0  0  0
 21 22  1  0  0  0  0
 22 23  1  0  0  0  0
 23 24  1  0  0  0  0
 24 25  1  0  0  0  0
 20 25  1  0  0  0  0
 21 26  1  0  0  0  0
 26 27  2  0  0  0  0
 18 27  1  0  0  0  0
M  END
> <ID>
CPD_757

$$$$
CPD_762
  Mrv1822 09091914012D          

 34 37  0  0  0  0            999 V2000
   -5.0013   -2.8875    0.0000 C   0  0  0  0  0  0  0  0  0  0  0  0
   -5.0013   -3.7125    0.0000 C   0  0  0  0  0  0  0  0  0  0  0  0
   -4.2868   -4.1250    0.0000 C   0  0  0  0  0  0  0  0  0  0  0  0
   -3.5724   -3.7125    0.0000 Br  0  0  0  0  0  0  0  0  0  0  0  0
   -4.2868   -4.9500    0.0000 C   0  0  0  0  0  0  0  0  0  0  0  0
   -5.0013   -5.3625    0.0000 C   0  0  0  0  0  0  0  0  0  0  0  0
   -5.7158   -4.9500    0.0000 C   0  0  0  0  0  0  0  0  0  0  0  0
   -6.4302   -5.3625    0.0000 N   0  0  0  0  0  0  0  0  0  0  0  0
   -6.4302   -6.1875    0.0000 C   0  0  0  0  0  0  0  0  0  0  0  0
   -5.7158   -6.6000    0.0000 O   0  0  0  0  0  0  0  0  0  0  0  0
   -7.1447   -6.6000    0.0000 C   0  0  0  0  0  0  0  0  0  0  0  0
   -7.1447   -7.4250    0.0000 C   0  0  0  0  0  0  0  0  0  0  0  0
   -7.8592   -7.8375    0.0000 C   0  0  0  0  0  0  0  0  0  0  0  0
   -8.5737   -7.4250    0.0000 C   0  0  0  0  0  0  0  0  0  0  0  0
   -8.5737   -6.6000    0.0000 C   0  0  0  0  0  0  0  0  0  0  0  0
   -7.8592   -6.1875    0.0000 C   0  0  0  0  0  0  0  0  0  0  0  0
   -6.4302   -7.8375    0.0000 C   0  0  0  0  0  0  0  0  0  0  0  0
   -5.7158   -7.4250    0.0000 O   0  0  0  0  0  0  0  0  0  0  0  0
   -6.4302   -8.6625    0.0000 N   0  0  0  0  0  0  0  0  0  0  0  0
   -5.7158   -9.0750    0.0000 C   0  0  0  0  0  0  0  0  0  0  0  0
   -5.0013   -8.6625    0.0000 C   0  0  0  0  0  0  0  0  0  0  0  0
   -4.2868   -9.0750    0.0000 C   0  0  0  0  0  0  0  0  0  0  0  0
   -3.5724   -8.6625    0.0000 O   0  0  0  0  0  0  0  0  0  0  0  0
   -4.2868   -9.9000    0.0000 N   0  0  0  0  0  0  0  0  0  0  0  0
   -5.0013  -10.3125    0.0000 C   0  0  0  0  0  0  0  0  0  0  0  0
   -5.0013  -11.1375    0.0000 N   0  0  0  0  0  0  0  0  0  0  0  0
   -4.2868  -11.5500    0.0000 C   0  0  0  0  0  0  0  0  0  0  0  0
   -3.5724  -11.1375    0.0000 C   0  0  0  0  0  0  0  0  0  0  0  0
   -2.8579  -11.5500    0.0000 C   0  0  0  0  0  0  0  0  0  0  0  0
   -2.8579  -12.3750    0.0000 C   0  0  0  0  0  0  0  0  0  0  0  0
   -3.5724  -12.7875    0.0000 C   0  0  0  0  0  0  0  0  0  0  0  0
   -4.2868  -12.3750    0.0000 C   0  0  0  0  0  0  0  0  0  0  0  0
   -5.7158   -9.9000    0.0000 N   0  0  0  0  0  0  0  0  0  0  0  0
   -5.7158   -4.1250    0.0000 C   0  0  0  0  0  0  0  0  0  0  0  0
  1  2  1  0  0  0  0
  2  3  2  0  0  0  0
  3  4  1  0  0  0  0
  3  5  1  0  0  0  0
  5  6  2  0  0  0  0
  6  7  1  0  0  0  0
  7  8  1  0  0  0  0
  8  9  1  0  0  0  0
  9 10  2  0  0  0  0
  9 11  1  0  0  0  0
 11 12  2  0  0  0  0
 12 13  1  0  0  0  0
 13 14  2  0  0  0  0
 14 15  1  0  0  0  0
 15 16  2  0  0  0  0
 11 16  1  0  0  0  0
 12 17  1  0  0  0  0
 17 18  2  0  0  0  0
 17 19  1  0  0  0  0
 19 20  1  0  0  0  0
 20 21  2  0  0  0  0
 21 22  1  0  0  0  0
 22 23  2  0  0  0  0
 22 24  1  0  0  0  0
 24 25  1  0  0  0  0
 25 26  1  0  0  0  0
 26 27  1  0  0  0  0
 27 28  1  0  0  0  0
 28 29  1  0  0  0  0
 29 30  1  0  0  0  0
 30 31  1  0  0  0  0
 31 32  1  0  0  0  0
 27 32  1  0  0  0  0
 25 33  2  0  0  0  0
 20 33  1  0  0  0  0
  7 34  2  0  0  0  0
  2 34  1  0  0  0  0
M  END
> <ID>
CPD_762

$$$$
CPD_767
  Mrv1822 09091914012D          

 26 28  0  0  0  0            999 V2000
   -2.1434    2.0625    0.0000 C   0  0  0  0  0  0  0  0  0  0  0  0
   -2.1434    1.2375    0.0000 C   0  0  0  0  0  0  0  0  0  0  0  0
   -1.4289    0.8250    0.0000 O   0  0  0  0  0  0  0  0  0  0  0  0
   -1.4289   -0.0000    0.0000 C   0  0  0  0  0  0  0  0  0  0  0  0
   -0.7145   -0.4125    0.0000 C   0  0  0  0  0  0  0  0  0  0  0  0
   -0.7145   -1.2375    0.0000 C   0  0  0  0  0  0  0  0  0  0  0  0
   -1.4289   -1.6500    0.0000 C   0  0  0  0  0  0  0  0  0  0  0  0
   -2.1434   -1.2375    0.0000 C   0  0  0  0  0  0  0  0  0  0  0  0
   -2.1434   -0.4125    0.0000 C   0  0  0  0  0  0  0  0  0  0  0  0
   -1.4289   -2.4750    0.0000 C   0  0  0  0  0  0  0  0  0  0  0  0
   -2.1434   -2.8875    0.0000 O   0  0  0  0  0  0  0  0  0  0  0  0
   -0.7145   -2.8875    0.0000 N   0  0  0  0  0  0  0  0  0  0  0  0
   -0.7145   -3.7125    0.0000 C   0  0  0  0  0  0  0  0  0  0  0  0
   -0.0000   -4.1250    0.0000 C   0  0  0  0  0  0  0  0  0  0  0  0
   -0.0000   -4.9500    0.0000 C   0  0  0  0  0  0  0  0  0  0  0  0
   -0.7145   -5.3625    0.0000 C   0  0  0  0  0  0  0  0  0  0  0  0
   -1.4289   -4.9500    0.0000 C   0  0  0  0  0  0  0  0  0  0  0  0
   -1.4289   -4.1250    0.0000 C   0  0  0  0  0  0  0  0  0  0  0  0
   -0.0000   -2.4750    0.0000 C   0  0  0  0  0  0  0  0  0  0  0  0
    0.0000   -1.6500    0.0000 N   0  0  0  0  0  0  0  0  0  0  0  0
    0.7145   -1.2375    0.0000 C   0  0  0  0  0  0  0  0  0  0  0  0
    0.7145   -0.4125    0.0000 N   0  0  0  0  0  0  0  0  0  0  0  0
    1.4289   -1.6500    0.0000 C   0  0  0  0  0  0  0  0  0  0  0  0
    1.4289   -2.4750    0.0000 C   0  0  0  0  0  0  0  0  0  0  0  0
    2.1434   -2.8875    0.0000 O   0  0  0  0  0  0  0  0  0  0  0  0
    0.7145   -2.8875    0.0000 N   0  0  0  0  0  0  0  0  0  0  0  0
  1  2  1  0  0  0  0
  2  3  1  0  0  0  0
  3  4  1  0  0  0  0
  4  5  2  0  0  0  0
  5  6  1  0  0  0  0
  6  7  2  0  0  0  0
  7  8  1  0  0  0  0
  8  9  2  0  0  0  0
  4  9  1  0  0  0  0
  7 10  1  0  0  0  0
 10 11  2  0  0  0  0
 10 12  1  0  0  0  0
 12 13  1  0  0  0  0
 13 14  1  0  0  0  0
 14 15  1  0  0  0  0
 15 16  1  0  0  0  0
 16 17  1  0  0  0  0
 17 18  1  0  0  0  0
 13 18  1  0  0  0  0
 12 19  1  0  0  0  0
 19 20  2  0  0  0  0
 20 21  1  0  0  0  0
 21 22  1  0  0  0  0
 21 23  2  0  0  0  0
 23 24  1  0  0  0  0
 24 25  2  0  0  0  0
 24 26  1  0  0  0  0
 19 26  1  0  0  0  0
M  END
> <ID>
CPD_767

$$$$
CPD_772
  Mrv1822 09091914012D          

 29 32  0  0  0  0            999 V2000
    6.2102    1.9354    0.0000 C   0  0  0  0  0  0  0  0  0  0  0  0
    5.4957    1.5229    0.0000 C   0  0  0  0  0  0  0  0  0  0  0  0
    4.7812    1.9354    0.0000 C   0  0  0  0  0  0  0  0  0  0  0  0
    5.1937    2.6499    0.0000 C   0  0  0  0  0  0  0  0  0  0  0  0
    4.3687    1.2210    0.0000 C   0  0  0  0  0  0  0  0  0  0  0  0
    4.0668    2.3479    0.0000 C   0  0  0  0  0  0  0  0  0  0  0  0
    4.0668    3.1729    0.0000 O   0  0  0  0  0  0  0  0  0  0  0  0
    3.3523    1.9354    0.0000 N   0  0  0  0  0  0  0  0  0  0  0  0
    3.3523    1.1104    0.0000 C   0  0  0  0  0  0  0  0  0  0  0  0
    2.6378    0.6979    0.0000 C   0  0  0  0  0  0  0  0  0  0  0  0
    1.9233    1.1104    0.0000 C   0  0  0  0  0  0  0  0  0  0  0  0
    1.9233    1.9354    0.0000 C   0  0  0  0  0  0  0  0  0  0  0  0
    2.6378    2.3479    0.0000 C   0  0  0  0  0  0  0  0  0  0  0  0
    1.1387    2.1904    0.0000 C   0  0  0  0  0  0  0  0  0  0  0  0
    0.6538    1.5229    0.0000 N   0  0  0  0  0  0  0  0  0  0  0  0
    1.1387    0.8555    0.0000 N   0  0  0  0  0  0  0  0  0  0  0  0
    0.8838    0.0709    0.0000 C   0  0  0  0  0  0  0  0  0  0  0  0
    0.8838    2.9750    0.0000 C   0  0  0  0  0  0  0  0  0  0  0  0
    0.0992    3.2299    0.0000 N   0  0  0  0  0  0  0  0  0  0  0  0
    0.0992    4.0549    0.0000 C   0  0  0  0  0  0  0  0  0  0  0  0
    0.8838    4.3099    0.0000 N   0  0  0  0  0  0  0  0  0  0  0  0
    1.3687    3.6424    0.0000 O   0  0  0  0  0  0  0  0  0  0  0  0
   -0.5683    4.5399    0.0000 C   0  0  0  0  0  0  0  0  0  0  0  0
   -1.3220    4.2043    0.0000 C   0  0  0  0  0  0  0  0  0  0  0  0
   -1.9894    4.6892    0.0000 C   0  0  0  0  0  0  0  0  0  0  0  0
   -2.7431    4.3537    0.0000 F   0  0  0  0  0  0  0  0  0  0  0  0
   -1.9032    5.5097    0.0000 C   0  0  0  0  0  0  0  0  0  0  0  0
   -1.1495    5.8453    0.0000 C   0  0  0  0  0  0  0  0  0  0  0  0
   -0.4820    5.3603    0.0000 C   0  0  0  0  0  0  0  0  0  0  0  0
  1  2  1  0  0  0  0
  2  3  1  0  0  0  0
  3  4  1  0  0  0  0
  3  5  1  0  0  0  0
  3  6  1  0  0  0  0
  6  7  2  0  0  0  0
  6  8  1  0  0  0  0
  8  9  1  0  0  0  0
  9 10  1  0  0  0  0
 10 11  1  0  0  0  0
 11 12  2  0  0  0  0
 12 13  1  0  0  0  0
  8 13  1  0  0  0  0
 12 14  1  0  0  0  0
 14 15  2  0  0  0  0
 15 16  1  0  0  0  0
 11 16  1  0  0  0  0
 16 17  1  0  0  0  0
 14 18  1  0  0  0  0
 18 19  2  0  0  0  0
 19 20  1  0  0  0  0
 20 21  2  0  0  0  0
 21 22  1  0  0  0  0
 18 22  1  0  0  0  0
 20 23  1  0  0  0  0
 23 24  2  0  0  0  0
 24 25  1  0  0  0  0
 25 26  1  0  0  0  0
 25 27  2  0  0  0  0
 27 28  1  0  0  0  0
 28 29  2  0  0  0  0
 23 29  1  0  0  0  0
M  END
> <ID>
CPD_772

$$$$
CPD_777
  Mrv1822 09091914012D          

 30 35  0  0  0  0            999 V2000
    2.2523    4.2871    0.0000 C   0  0  0  0  0  0  0  0  0  0  0  0
    2.2523    3.4621    0.0000 N   0  0  0  0  0  0  0  0  0  0  0  0
    1.5848    2.9771    0.0000 N   0  0  0  0  0  0  0  0  0  0  0  0
    1.8398    2.1925    0.0000 C   0  0  0  0  0  0  0  0  0  0  0  0
    1.3548    1.5251    0.0000 C   0  0  0  0  0  0  0  0  0  0  0  0
    1.6098    0.7405    0.0000 N   0  0  0  0  0  0  0  0  0  0  0  0
    0.9423    0.2555    0.0000 C   0  0  0  0  0  0  0  0  0  0  0  0
    0.2749    0.7405    0.0000 N   0  0  0  0  0  0  0  0  0  0  0  0
    0.5298    1.5251    0.0000 O   0  0  0  0  0  0  0  0  0  0  0  0
    0.9423   -0.5695    0.0000 C   0  0  0  0  0  0  0  0  0  0  0  0
    1.6568   -0.9820    0.0000 C   0  0  0  0  0  0  0  0  0  0  0  0
    1.6568   -1.8070    0.0000 C   0  0  0  0  0  0  0  0  0  0  0  0
    2.3713   -2.2195    0.0000 F   0  0  0  0  0  0  0  0  0  0  0  0
    0.9423   -2.2195    0.0000 C   0  0  0  0  0  0  0  0  0  0  0  0
    0.2279   -1.8070    0.0000 C   0  0  0  0  0  0  0  0  0  0  0  0
    0.2279   -0.9820    0.0000 C   0  0  0  0  0  0  0  0  0  0  0  0
    2.6648    2.1925    0.0000 C   0  0  0  0  0  0  0  0  0  0  0  0
    2.9197    2.9771    0.0000 C   0  0  0  0  0  0  0  0  0  0  0  0
    3.7267    3.1487    0.0000 C   0  0  0  0  0  0  0  0  0  0  0  0
    4.2787    2.5356    0.0000 C   0  0  0  0  0  0  0  0  0  0  0  0
    4.0238    1.7510    0.0000 N   0  0  0  0  0  0  0  0  0  0  0  0
    3.2168    1.5794    0.0000 C   0  0  0  0  0  0  0  0  0  0  0  0
    4.5758    1.1379    0.0000 C   0  0  0  0  0  0  0  0  0  0  0  0
    5.3828    1.3094    0.0000 O   0  0  0  0  0  0  0  0  0  0  0  0
    4.3209    0.3532    0.0000 C   0  0  0  0  0  0  0  0  0  0  0  0
    4.8058   -0.3142    0.0000 N   0  0  0  0  0  0  0  0  0  0  0  0
    4.3209   -0.9816    0.0000 C   0  0  0  0  0  0  0  0  0  0  0  0
    3.5362   -0.7267    0.0000 C   0  0  0  0  0  0  0  0  0  0  0  0
    2.8218   -0.3142    0.0000 C   0  0  0  0  0  0  0  0  0  0  0  0
    3.5362    0.0983    0.0000 C   0  0  0  0  0  0  0  0  0  0  0  0
  1  2  1  0  0  0  0
  2  3  1  0  0  0  0
  3  4  2  0  0  0  0
  4  5  1  0  0  0  0
  5  6  2  0  0  0  0
  6  7  1  0  0  0  0
  7  8  2  0  0  0  0
  8  9  1  0  0  0  0
  5  9  1  0  0  0  0
  7 10  1  0  0  0  0
 10 11  2  0  0  0  0
 11 12  1  0  0  0  0
 12 13  1  0  0  0  0
 12 14  2  0  0  0  0
 14 15  1  0  0  0  0
 15 16  2  0  0  0  0
 10 16  1  0  0  0  0
  4 17  1  0  0  0  0
 17 18  2  0  0  0  0
  2 18  1  0  0  0  0
 18 19  1  0  0  0  0
 19 20  1  0  0  0  0
 20 21  1  0  0  0  0
 21 22  1  0  0  0  0
 17 22  1  0  0  0  0
 21 23  1  0  0  0  0
 23 24  2  0  0  0  0
 23 25  1  0  0  0  0
 25 26  1  0  0  0  0
 26 27  1  0  0  0  0
 27 28  1  0  0  0  0
 28 29  1  0  0  0  0
 29 30  1  0  0  0  0
 25 30  1  0  0  0  0
 28 30  1  0  0  0  0
M  END
> <ID>
CPD_777

$$$$
CPD_782
  Mrv1822 09091914012D          

 30 34  0  0  0  0            999 V2000
   -0.3984    0.7541    0.0000 C   0  0  0  0  0  0  0  0  0  0  0  0
   -0.1435   -0.0305    0.0000 N   0  0  0  0  0  0  0  0  0  0  0  0
   -0.6284   -0.6979    0.0000 N   0  0  0  0  0  0  0  0  0  0  0  0
   -0.1435   -1.3654    0.0000 C   0  0  0  0  0  0  0  0  0  0  0  0
   -0.3984   -2.1500    0.0000 C   0  0  0  0  0  0  0  0  0  0  0  0
    0.0865   -2.8174    0.0000 N   0  0  0  0  0  0  0  0  0  0  0  0
   -0.3984   -3.4849    0.0000 C   0  0  0  0  0  0  0  0  0  0  0  0
   -1.1831   -3.2299    0.0000 N   0  0  0  0  0  0  0  0  0  0  0  0
   -1.1831   -2.4049    0.0000 O   0  0  0  0  0  0  0  0  0  0  0  0
   -0.1435   -4.2695    0.0000 C   0  0  0  0  0  0  0  0  0  0  0  0
    0.6635   -4.4410    0.0000 C   0  0  0  0  0  0  0  0  0  0  0  0
    0.9184   -5.2257    0.0000 C   0  0  0  0  0  0  0  0  0  0  0  0
    1.7254   -5.3972    0.0000 F   0  0  0  0  0  0  0  0  0  0  0  0
    0.3664   -5.8387    0.0000 C   0  0  0  0  0  0  0  0  0  0  0  0
   -0.4406   -5.6672    0.0000 C   0  0  0  0  0  0  0  0  0  0  0  0
   -0.6955   -4.8826    0.0000 C   0  0  0  0  0  0  0  0  0  0  0  0
    0.6411   -1.1104    0.0000 C   0  0  0  0  0  0  0  0  0  0  0  0
    0.6411   -0.2854    0.0000 C   0  0  0  0  0  0  0  0  0  0  0  0
    1.3556    0.1271    0.0000 C   0  0  0  0  0  0  0  0  0  0  0  0
    2.0701   -0.2854    0.0000 C   0  0  0  0  0  0  0  0  0  0  0  0
    2.0701   -1.1104    0.0000 N   0  0  0  0  0  0  0  0  0  0  0  0
    1.3556   -1.5229    0.0000 C   0  0  0  0  0  0  0  0  0  0  0  0
    2.7845   -1.5229    0.0000 C   0  0  0  0  0  0  0  0  0  0  0  0
    3.4990   -1.1104    0.0000 O   0  0  0  0  0  0  0  0  0  0  0  0
    2.7845   -2.3479    0.0000 C   0  0  0  0  0  0  0  0  0  0  0  0
    3.4990   -2.7604    0.0000 C   0  0  0  0  0  0  0  0  0  0  0  0
    3.4990   -3.5854    0.0000 C   0  0  0  0  0  0  0  0  0  0  0  0
    2.7845   -3.9979    0.0000 C   0  0  0  0  0  0  0  0  0  0  0  0
    2.0701   -3.5854    0.0000 C   0  0  0  0  0  0  0  0  0  0  0  0
    2.0701   -2.7604    0.0000 C   0  0  0  0  0  0  0  0  0  0  0  0
  1  2  1  0  0  0  0
  2  3  1  0  0  0  0
  3  4  2  0  0  0  0
  4  5  1  0  0  0  0
  5  6  2  0  0  0  0
  6  7  1  0  0  0  0
  7  8  2  0  0  0  0
  8  9  1  0  0  0  0
  5  9  1  0  0  0  0
  7 10  1  0  0  0  0
 10 11  2  0  0  0  0
 11 12  1  0  0  0  0
 12 13  1  0  0  0  0
 12 14  2  0  0  0  0
 14 15  1  0  0  0  0
 15 16  2  0  0  0  0
 10 16  1  0  0  0  0
  4 17  1  0  0  0  0
 17 18  2  0  0  0  0
  2 18  1  0  0  0  0
 18 19  1  0  0  0  0
 19 20  1  0  0  0  0
 20 21  1  0  0  0  0
 21 22  1  0  0  0  0
 17 22  1  0  0  0  0
 21 23  1  0  0  0  0
 23 24  2  0  0  0  0
 23 25  1  0  0  0  0
 25 26  2  0  0  0  0
 26 27  1  0  0  0  0
 27 28  2  0  0  0  0
 28 29  1  0  0  0  0
 29 30  2  0  0  0  0
 25 30  1  0  0  0  0
M  END
> <ID>
CPD_782

$$$$
CPD_787
  Mrv1822 09091914012D          

 19 19  0  0  0  0            999 V2000
    0.7145   -3.7125    0.0000 C   0  0  0  0  0  0  0  0  0  0  0  0
    1.4289   -4.1250    0.0000 C   0  0  0  0  0  0  0  0  0  0  0  0
    2.1434   -3.7125    0.0000 O   0  0  0  0  0  0  0  0  0  0  0  0
    2.8579   -4.1250    0.0000 C   0  0  0  0  0  0  0  0  0  0  0  0
    2.8579   -4.9500    0.0000 O   0  0  0  0  0  0  0  0  0  0  0  0
    3.5724   -3.7125    0.0000 C   0  0  0  0  0  0  0  0  0  0  0  0
    4.2868   -4.1250    0.0000 C   0  0  0  0  0  0  0  0  0  0  0  0
    5.0013   -3.7125    0.0000 C   0  0  0  0  0  0  0  0  0  0  0  0
    5.0013   -2.8875    0.0000 O   0  0  0  0  0  0  0  0  0  0  0  0
    5.7158   -4.1250    0.0000 N   0  0  0  0  0  0  0  0  0  0  0  0
    6.4302   -3.7125    0.0000 C   0  0  0  0  0  0  0  0  0  0  0  0
    7.1447   -4.1250    0.0000 C   0  0  0  0  0  0  0  0  0  0  0  0
    7.1447   -4.9500    0.0000 C   0  0  0  0  0  0  0  0  0  0  0  0
    7.9572   -4.8067    0.0000 C   0  0  0  0  0  0  0  0  0  0  0  0
    8.2393   -4.0315    0.0000 C   0  0  0  0  0  0  0  0  0  0  0  0
    7.4269   -5.7252    0.0000 C   0  0  0  0  0  0  0  0  0  0  0  0
    6.8966   -6.3572    0.0000 O   0  0  0  0  0  0  0  0  0  0  0  0
    6.4302   -5.3625    0.0000 C   0  0  0  0  0  0  0  0  0  0  0  0
    5.7158   -4.9500    0.0000 C   0  0  0  0  0  0  0  0  0  0  0  0
  1  2  1  0  0  0  0
  2  3  1  0  0  0  0
  3  4  1  0  0  0  0
  4  5  2  0  0  0  0
  4  6  1  0  0  0  0
  6  7  1  0  0  0  0
  7  8  1  0  0  0  0
  8  9  2  0  0  0  0
  8 10  1  0  0  0  0
 10 11  1  0  0  0  0
 11 12  1  0  0  0  0
 12 13  1  0  0  0  0
 13 14  1  0  0  0  0
 14 15  1  0  0  0  0
 13 16  1  0  0  0  0
 16 17  1  0  0  0  0
 13 18  1  0  0  0  0
 18 19  1  0  0  0  0
 10 19  1  0  0  0  0
M  END
> <ID>
CPD_787

$$$$
CPD_792
  Mrv1822 09091914012D          

 24 26  0  0  0  0            999 V2000
   -2.7091   -0.4386    0.0000 C   0  0  0  0  0  0  0  0  0  0  0  0
   -2.7091   -1.2636    0.0000 N   0  0  0  0  0  0  0  0  0  0  0  0
   -3.4236   -1.6761    0.0000 C   0  0  0  0  0  0  0  0  0  0  0  0
   -4.1381   -1.2636    0.0000 C   0  0  0  0  0  0  0  0  0  0  0  0
   -4.8525   -1.6761    0.0000 N   0  0  0  0  0  0  0  0  0  0  0  0
   -5.5670   -1.2636    0.0000 C   0  0  0  0  0  0  0  0  0  0  0  0
   -6.2815   -1.6761    0.0000 C   0  0  0  0  0  0  0  0  0  0  0  0
   -6.2815   -2.5011    0.0000 C   0  0  0  0  0  0  0  0  0  0  0  0
   -6.9960   -1.2636    0.0000 C   0  0  0  0  0  0  0  0  0  0  0  0
   -6.9960   -0.4386    0.0000 C   0  0  0  0  0  0  0  0  0  0  0  0
   -6.2815   -0.0261    0.0000 C   0  0  0  0  0  0  0  0  0  0  0  0
   -5.5670   -0.4386    0.0000 C   0  0  0  0  0  0  0  0  0  0  0  0
   -1.9947   -1.6761    0.0000 C   0  0  0  0  0  0  0  0  0  0  0  0
   -1.9947   -2.5011    0.0000 O   0  0  0  0  0  0  0  0  0  0  0  0
   -1.2802   -1.2636    0.0000 C   0  0  0  0  0  0  0  0  0  0  0  0
   -0.5657   -1.6761    0.0000 C   0  0  0  0  0  0  0  0  0  0  0  0
   -0.4795   -2.4966    0.0000 C   0  0  0  0  0  0  0  0  0  0  0  0
    0.3275   -2.6681    0.0000 N   0  0  0  0  0  0  0  0  0  0  0  0
    0.7400   -1.9537    0.0000 C   0  0  0  0  0  0  0  0  0  0  0  0
    0.1880   -1.3406    0.0000 C   0  0  0  0  0  0  0  0  0  0  0  0
    0.4429   -0.5560    0.0000 C   0  0  0  0  0  0  0  0  0  0  0  0
    1.2499   -0.3844    0.0000 C   0  0  0  0  0  0  0  0  0  0  0  0
    1.8019   -0.9975    0.0000 C   0  0  0  0  0  0  0  0  0  0  0  0
    1.5470   -1.7821    0.0000 C   0  0  0  0  0  0  0  0  0  0  0  0
  1  2  1  0  0  0  0
  2  3  1  0  0  0  0
  3  4  1  0  0  0  0
  4  5  1  0  0  0  0
  5  6  1  0  0  0  0
  6  7  2  0  0  0  0
  7  8  1  0  0  0  0
  7  9  1  0  0  0  0
  9 10  2  0  0  0  0
 10 11  1  0  0  0  0
 11 12  2  0  0  0  0
  6 12  1  0  0  0  0
  2 13  1  0  0  0  0
 13 14  2  0  0  0  0
 13 15  1  0  0  0  0
 15 16  1  0  0  0  0
 16 17  2  0  0  0  0
 17 18  1  0  0  0  0
 18 19  1  0  0  0  0
 19 20  2  0  0  0  0
 16 20  1  0  0  0  0
 20 21  1  0  0  0  0
 21 22  2  0  0  0  0
 22 23  1  0  0  0  0
 23 24  2  0  0  0  0
 19 24  1  0  0  0  0
M  END
> <ID>
CPD_792

$$$$
CPD_797
  Mrv1822 09091914012D          

 20 21  0  0  0  0            999 V2000
    1.4289   -2.4750    0.0000 C   0  0  0  0  0  0  0  0  0  0  0  0
    1.4289   -1.6500    0.0000 N   0  0  0  0  0  0  0  0  0  0  0  0
    0.7145   -1.2375    0.0000 C   0  0  0  0  0  0  0  0  0  0  0  0
    0.0000   -1.6500    0.0000 C   0  0  0  0  0  0  0  0  0  0  0  0
   -0.7145   -1.2375    0.0000 N   0  0  0  0  0  0  0  0  0  0  0  0
   -1.4289   -1.6500    0.0000 C   0  0  0  0  0  0  0  0  0  0  0  0
   -1.4289   -2.4750    0.0000 C   0  0  0  0  0  0  0  0  0  0  0  0
   -0.7145   -2.8875    0.0000 C   0  0  0  0  0  0  0  0  0  0  0  0
   -2.1434   -2.8875    0.0000 C   0  0  0  0  0  0  0  0  0  0  0  0
   -2.8579   -2.4750    0.0000 C   0  0  0  0  0  0  0  0  0  0  0  0
   -2.8579   -1.6500    0.0000 C   0  0  0  0  0  0  0  0  0  0  0  0
   -2.1434   -1.2375    0.0000 C   0  0  0  0  0  0  0  0  0  0  0  0
    2.1434   -1.2375    0.0000 C   0  0  0  0  0  0  0  0  0  0  0  0
    2.1434   -0.4125    0.0000 O   0  0  0  0  0  0  0  0  0  0  0  0
    2.8579   -1.6500    0.0000 C   0  0  0  0  0  0  0  0  0  0  0  0
    3.5724   -1.2375    0.0000 C   0  0  0  0  0  0  0  0  0  0  0  0
    3.9849   -0.5230    0.0000 C   0  0  0  0  0  0  0  0  0  0  0  0
    4.3974   -1.2375    0.0000 C   0  0  0  0  0  0  0  0  0  0  0  0
    5.2192   -1.1656    0.0000 F   0  0  0  0  0  0  0  0  0  0  0  0
    4.7460   -1.9852    0.0000 F   0  0  0  0  0  0  0  0  0  0  0  0
  1  2  1  0  0  0  0
  2  3  1  0  0  0  0
  3  4  1  0  0  0  0
  4  5  1  0  0  0  0
  5  6  1  0  0  0  0
  6  7  2  0  0  0  0
  7  8  1  0  0  0  0
  7  9  1  0  0  0  0
  9 10  2  0  0  0  0
 10 11  1  0  0  0  0
 11 12  2  0  0  0  0
  6 12  1  0  0  0  0
  2 13  1  0  0  0  0
 13 14  2  0  0  0  0
 13 15  1  0  0  0  0
 15 16  1  0  0  0  0
 16 17  1  0  0  0  0
 17 18  1  0  0  0  0
 16 18  1  0  0  0  0
 18 19  1  0  0  0  0
 18 20  1  0  0  0  0
M  END
> <ID>
CPD_797

$$$$
CPD_802
  Mrv1822 09091914012D          

 33 36  0  0  0  0            999 V2000
    2.8579    0.0000    0.0000 O   0  0  0  0  0  0  0  0  0  0  0  0
    3.5724   -0.4125    0.0000 C   0  0  0  0  0  0  0  0  0  0  0  0
    3.5724   -1.2375    0.0000 C   0  0  0  0  0  0  0  0  0  0  0  0
    2.8579   -1.6500    0.0000 C   0  0  0  0  0  0  0  0  0  0  0  0
    2.1434   -1.2375    0.0000 O   0  0  0  0  0  0  0  0  0  0  0  0
    2.8579   -2.4750    0.0000 N   0  0  0  0  0  0  0  0  0  0  0  0
    3.5724   -2.8875    0.0000 C   0  0  0  0  0  0  0  0  0  0  0  0
    3.5724   -3.7125    0.0000 C   0  0  0  0  0  0  0  0  0  0  0  0
    2.8579   -4.1250    0.0000 C   0  0  0  0  0  0  0  0  0  0  0  0
    2.8579   -4.9500    0.0000 C   0  0  0  0  0  0  0  0  0  0  0  0
    2.1434   -5.3625    0.0000 O   0  0  0  0  0  0  0  0  0  0  0  0
    2.1434   -6.1875    0.0000 C   0  0  0  0  0  0  0  0  0  0  0  0
    2.8579   -6.6000    0.0000 C   0  0  0  0  0  0  0  0  0  0  0  0
    2.8579   -7.4250    0.0000 C   0  0  0  0  0  0  0  0  0  0  0  0
    2.1434   -7.8375    0.0000 C   0  0  0  0  0  0  0  0  0  0  0  0
    1.4289   -7.4250    0.0000 C   0  0  0  0  0  0  0  0  0  0  0  0
    1.4289   -6.6000    0.0000 C   0  0  0  0  0  0  0  0  0  0  0  0
    2.1434   -8.6625    0.0000 C   0  0  0  0  0  0  0  0  0  0  0  0
    2.8579   -9.0750    0.0000 O   0  0  0  0  0  0  0  0  0  0  0  0
    1.4289   -9.0750    0.0000 N   0  0  0  0  0  0  0  0  0  0  0  0
    1.4289   -9.9000    0.0000 C   0  0  0  0  0  0  0  0  0  0  0  0
    0.7145  -10.3125    0.0000 C   0  0  0  0  0  0  0  0  0  0  0  0
   -0.0000   -9.9000    0.0000 O   0  0  0  0  0  0  0  0  0  0  0  0
   -0.0000   -9.0750    0.0000 C   0  0  0  0  0  0  0  0  0  0  0  0
    0.7145   -8.6625    0.0000 C   0  0  0  0  0  0  0  0  0  0  0  0
    2.1434   -3.7125    0.0000 C   0  0  0  0  0  0  0  0  0  0  0  0
    2.1434   -2.8875    0.0000 C   0  0  0  0  0  0  0  0  0  0  0  0
    4.2868   -0.0000    0.0000 C   0  0  0  0  0  0  0  0  0  0  0  0
    4.2868    0.8250    0.0000 C   0  0  0  0  0  0  0  0  0  0  0  0
    5.0013    1.2375    0.0000 C   0  0  0  0  0  0  0  0  0  0  0  0
    5.7158    0.8250    0.0000 C   0  0  0  0  0  0  0  0  0  0  0  0
    5.7158   -0.0000    0.0000 C   0  0  0  0  0  0  0  0  0  0  0  0
    5.0013   -0.4125    0.0000 C   0  0  0  0  0  0  0  0  0  0  0  0
  1  2  1  0  0  0  0
  2  3  1  0  0  0  0
  3  4  1  0  0  0  0
  4  5  2  0  0  0  0
  4  6  1  0  0  0  0
  6  7  1  0  0  0  0
  7  8  1  0  0  0  0
  8  9  1  0  0  0  0
  9 10  1  0  0  0  0
 10 11  1  0  0  0  0
 11 12  1  0  0  0  0
 12 13  2  0  0  0  0
 13 14  1  0  0  0  0
 14 15  2  0  0  0  0
 15 16  1  0  0  0  0
 16 17  2  0  0  0  0
 12 17  1  0  0  0  0
 15 18  1  0  0  0  0
 18 19  2  0  0  0  0
 18 20  1  0  0  0  0
 20 21  1  0  0  0  0
 21 22  1  0  0  0  0
 22 23  1  0  0  0  0
 23 24  1  0  0  0  0
 24 25  1  0  0  0  0
 20 25  1  0  0  0  0
  9 26  1  0  0  0  0
 26 27  1  0  0  0  0
  6 27  1  0  0  0  0
  2 28  1  0  0  0  0
 28 29  2  0  0  0  0
 29 30  1  0  0  0  0
 30 31  2  0  0  0  0
 31 32  1  0  0  0  0
 32 33  2  0  0  0  0
 28 33  1  0  0  0  0
M  END
> <ID>
CPD_802

$$$$
CPD_807
  Mrv1822 09091914012D          

 34 37  0  0  0  0            999 V2000
   -5.7158   -4.9500    0.0000 C   0  0  0  0  0  0  0  0  0  0  0  0
   -5.0013   -5.3625    0.0000 O   0  0  0  0  0  0  0  0  0  0  0  0
   -5.0013   -6.1875    0.0000 C   0  0  0  0  0  0  0  0  0  0  0  0
   -4.2868   -6.6000    0.0000 C   0  0  0  0  0  0  0  0  0  0  0  0
   -4.2868   -7.4250    0.0000 C   0  0  0  0  0  0  0  0  0  0  0  0
   -5.0013   -7.8375    0.0000 C   0  0  0  0  0  0  0  0  0  0  0  0
   -5.7158   -7.4250    0.0000 C   0  0  0  0  0  0  0  0  0  0  0  0
   -5.7158   -6.6000    0.0000 C   0  0  0  0  0  0  0  0  0  0  0  0
   -6.4302   -6.1875    0.0000 O   0  0  0  0  0  0  0  0  0  0  0  0
   -6.4302   -5.3625    0.0000 C   0  0  0  0  0  0  0  0  0  0  0  0
   -5.0013   -8.6625    0.0000 C   0  0  0  0  0  0  0  0  0  0  0  0
   -4.2868   -9.0750    0.0000 O   0  0  0  0  0  0  0  0  0  0  0  0
   -5.7158   -9.0750    0.0000 N   0  0  0  0  0  0  0  0  0  0  0  0
   -5.7158   -9.9000    0.0000 C   0  0  0  0  0  0  0  0  0  0  0  0
   -6.4302  -10.3125    0.0000 C   0  0  0  0  0  0  0  0  0  0  0  0
   -7.1447   -9.9000    0.0000 C   0  0  0  0  0  0  0  0  0  0  0  0
   -7.8592  -10.3125    0.0000 C   0  0  0  0  0  0  0  0  0  0  0  0
   -7.8592  -11.1375    0.0000 O   0  0  0  0  0  0  0  0  0  0  0  0
   -8.5737  -11.5500    0.0000 C   0  0  0  0  0  0  0  0  0  0  0  0
   -8.5737  -12.3750    0.0000 C   0  0  0  0  0  0  0  0  0  0  0  0
   -9.2881  -12.7875    0.0000 C   0  0  0  0  0  0  0  0  0  0  0  0
  -10.0026  -12.3750    0.0000 C   0  0  0  0  0  0  0  0  0  0  0  0
  -10.0026  -11.5500    0.0000 C   0  0  0  0  0  0  0  0  0  0  0  0
   -9.2881  -11.1375    0.0000 C   0  0  0  0  0  0  0  0  0  0  0  0
  -10.7171  -12.7875    0.0000 C   0  0  0  0  0  0  0  0  0  0  0  0
  -11.4315  -12.3750    0.0000 O   0  0  0  0  0  0  0  0  0  0  0  0
  -10.7171  -13.6125    0.0000 N   0  0  0  0  0  0  0  0  0  0  0  0
  -10.0026  -14.0250    0.0000 C   0  0  0  0  0  0  0  0  0  0  0  0
  -10.0026  -14.8500    0.0000 C   0  0  0  0  0  0  0  0  0  0  0  0
  -10.7171  -15.2625    0.0000 O   0  0  0  0  0  0  0  0  0  0  0  0
  -11.4315  -14.8500    0.0000 C   0  0  0  0  0  0  0  0  0  0  0  0
  -11.4315  -14.0250    0.0000 C   0  0  0  0  0  0  0  0  0  0  0  0
   -7.1447   -9.0750    0.0000 C   0  0  0  0  0  0  0  0  0  0  0  0
   -6.4302   -8.6625    0.0000 C   0  0  0  0  0  0  0  0  0  0  0  0
  1  2  1  0  0  0  0
  2  3  1  0  0  0  0
  3  4  2  0  0  0  0
  4  5  1  0  0  0  0
  5  6  2  0  0  0  0
  6  7  1  0  0  0  0
  7  8  2  0  0  0  0
  3  8  1  0  0  0  0
  8  9  1  0  0  0  0
  9 10  1  0  0  0  0
  6 11  1  0  0  0  0
 11 12  2  0  0  0  0
 11 13  1  0  0  0  0
 13 14  1  0  0  0  0
 14 15  1  0  0  0  0
 15 16  1  0  0  0  0
 16 17  1  0  0  0  0
 17 18  1  0  0  0  0
 18 19  1  0  0  0  0
 19 20  2  0  0  0  0
 20 21  1  0  0  0  0
 21 22  2  0  0  0  0
 22 23  1  0  0  0  0
 23 24  2  0  0  0  0
 19 24  1  0  0  0  0
 22 25  1  0  0  0  0
 25 26  2  0  0  0  0
 25 27  1  0  0  0  0
 27 28  1  0  0  0  0
 28 29  1  0  0  0  0
 29 30  1  0  0  0  0
 30 31  1  0  0  0  0
 31 32  1  0  0  0  0
 27 32  1  0  0  0  0
 16 33  1  0  0  0  0
 33 34  1  0  0  0  0
 13 34  1  0  0  0  0
M  END
> <ID>
CPD_807

$$$$
CPD_812
  Mrv1822 09091914012D          

 28 30  0  0  0  0            999 V2000
    6.6581   -4.0345    0.0000 C   0  0  0  0  0  0  0  0  0  0  0  0
    6.1180   -4.6582    0.0000 C   0  0  0  0  0  0  0  0  0  0  0  0
    6.3880   -5.4377    0.0000 C   0  0  0  0  0  0  0  0  0  0  0  0
    7.1982   -5.5936    0.0000 C   0  0  0  0  0  0  0  0  0  0  0  0
    7.7383   -4.9700    0.0000 C   0  0  0  0  0  0  0  0  0  0  0  0
    8.5484   -5.1259    0.0000 C   0  0  0  0  0  0  0  0  0  0  0  0
    9.0885   -4.5023    0.0000 C   0  0  0  0  0  0  0  0  0  0  0  0
    9.8986   -4.6582    0.0000 C   0  0  0  0  0  0  0  0  0  0  0  0
   10.1687   -5.4377    0.0000 O   0  0  0  0  0  0  0  0  0  0  0  0
   10.4387   -4.0345    0.0000 N   0  0  0  0  0  0  0  0  0  0  0  0
   10.2516   -3.2310    0.0000 C   0  0  0  0  0  0  0  0  0  0  0  0
   10.9580   -2.8048    0.0000 C   0  0  0  0  0  0  0  0  0  0  0  0
   11.5816   -3.3449    0.0000 C   0  0  0  0  0  0  0  0  0  0  0  0
   11.2607   -4.1049    0.0000 C   0  0  0  0  0  0  0  0  0  0  0  0
   11.6869   -4.8113    0.0000 C   0  0  0  0  0  0  0  0  0  0  0  0
   12.5118   -4.7953    0.0000 O   0  0  0  0  0  0  0  0  0  0  0  0
   12.9380   -5.5017    0.0000 C   0  0  0  0  0  0  0  0  0  0  0  0
   13.7628   -5.4858    0.0000 C   0  0  0  0  0  0  0  0  0  0  0  0
   14.1891   -6.1922    0.0000 C   0  0  0  0  0  0  0  0  0  0  0  0
   13.7904   -6.9145    0.0000 C   0  0  0  0  0  0  0  0  0  0  0  0
   12.9656   -6.9304    0.0000 C   0  0  0  0  0  0  0  0  0  0  0  0
   12.5394   -6.2240    0.0000 C   0  0  0  0  0  0  0  0  0  0  0  0
   14.2167   -7.6208    0.0000 C   0  0  0  0  0  0  0  0  0  0  0  0
   13.8180   -8.3431    0.0000 O   0  0  0  0  0  0  0  0  0  0  0  0
   15.0415   -7.6049    0.0000 N   0  0  0  0  0  0  0  0  0  0  0  0
   15.4677   -8.3113    0.0000 C   0  0  0  0  0  0  0  0  0  0  0  0
   16.1900   -8.7099    0.0000 C   0  0  0  0  0  0  0  0  0  0  0  0
   15.4837   -9.1361    0.0000 C   0  0  0  0  0  0  0  0  0  0  0  0
  1  2  1  0  0  0  0
  2  3  1  0  0  0  0
  3  4  1  0  0  0  0
  4  5  1  0  0  0  0
  5  6  1  0  0  0  0
  6  7  1  0  0  0  0
  7  8  1  0  0  0  0
  8  9  2  0  0  0  0
  8 10  1  0  0  0  0
 10 11  1  0  0  0  0
 11 12  1  0  0  0  0
 12 13  1  0  0  0  0
 13 14  1  0  0  0  0
 10 14  1  0  0  0  0
 14 15  1  0  0  0  0
 15 16  1  0  0  0  0
 16 17  1  0  0  0  0
 17 18  2  0  0  0  0
 18 19  1  0  0  0  0
 19 20  2  0  0  0  0
 20 21  1  0  0  0  0
 21 22  2  0  0  0  0
 17 22  1  0  0  0  0
 20 23  1  0  0  0  0
 23 24  2  0  0  0  0
 23 25  1  0  0  0  0
 25 26  1  0  0  0  0
 26 27  1  0  0  0  0
 27 28  1  0  0  0  0
 26 28  1  0  0  0  0
M  END
> <ID>
CPD_812

$$$$
CPD_817
  Mrv1822 09091914012D          

 27 30  0  0  0  0            999 V2000
   -1.1659    9.7701    0.0000 C   0  0  0  0  0  0  0  0  0  0  0  0
   -1.4208   10.5547    0.0000 C   0  0  0  0  0  0  0  0  0  0  0  0
   -0.6362   10.8096    0.0000 C   0  0  0  0  0  0  0  0  0  0  0  0
   -0.0231   10.2576    0.0000 C   0  0  0  0  0  0  0  0  0  0  0  0
   -0.1946    9.4506    0.0000 O   0  0  0  0  0  0  0  0  0  0  0  0
    0.7615   10.5126    0.0000 N   0  0  0  0  0  0  0  0  0  0  0  0
    1.0164   11.2972    0.0000 C   0  0  0  0  0  0  0  0  0  0  0  0
    1.8414   11.2972    0.0000 C   0  0  0  0  0  0  0  0  0  0  0  0
    2.0964   10.5126    0.0000 C   0  0  0  0  0  0  0  0  0  0  0  0
    1.4289   10.0276    0.0000 C   0  0  0  0  0  0  0  0  0  0  0  0
    1.4289    9.2026    0.0000 C   0  0  0  0  0  0  0  0  0  0  0  0
    2.1434    8.7901    0.0000 O   0  0  0  0  0  0  0  0  0  0  0  0
    2.1434    7.9651    0.0000 C   0  0  0  0  0  0  0  0  0  0  0  0
    2.8579    7.5526    0.0000 C   0  0  0  0  0  0  0  0  0  0  0  0
    2.8579    6.7276    0.0000 C   0  0  0  0  0  0  0  0  0  0  0  0
    2.1434    6.3151    0.0000 C   0  0  0  0  0  0  0  0  0  0  0  0
    1.4289    6.7276    0.0000 C   0  0  0  0  0  0  0  0  0  0  0  0
    1.4289    7.5526    0.0000 C   0  0  0  0  0  0  0  0  0  0  0  0
    2.1434    5.4901    0.0000 C   0  0  0  0  0  0  0  0  0  0  0  0
    2.8579    5.0776    0.0000 O   0  0  0  0  0  0  0  0  0  0  0  0
    1.4289    5.0776    0.0000 N   0  0  0  0  0  0  0  0  0  0  0  0
    1.4289    4.2526    0.0000 C   0  0  0  0  0  0  0  0  0  0  0  0
    1.8414    3.5382    0.0000 C   0  0  0  0  0  0  0  0  0  0  0  0
    1.0164    3.5382    0.0000 C   0  0  0  0  0  0  0  0  0  0  0  0
   -2.2055   10.2998    0.0000 C   0  0  0  0  0  0  0  0  0  0  0  0
   -2.4604   11.0844    0.0000 O   0  0  0  0  0  0  0  0  0  0  0  0
   -1.6758   11.3393    0.0000 C   0  0  0  0  0  0  0  0  0  0  0  0
  1  2  1  0  0  0  0
  2  3  1  0  0  0  0
  3  4  1  0  0  0  0
  4  5  2  0  0  0  0
  4  6  1  0  0  0  0
  6  7  1  0  0  0  0
  7  8  1  0  0  0  0
  8  9  1  0  0  0  0
  9 10  1  0  0  0  0
  6 10  1  0  0  0  0
 10 11  1  0  0  0  0
 11 12  1  0  0  0  0
 12 13  1  0  0  0  0
 13 14  2  0  0  0  0
 14 15  1  0  0  0  0
 15 16  2  0  0  0  0
 16 17  1  0  0  0  0
 17 18  2  0  0  0  0
 13 18  1  0  0  0  0
 16 19  1  0  0  0  0
 19 20  2  0  0  0  0
 19 21  1  0  0  0  0
 21 22  1  0  0  0  0
 22 23  1  0  0  0  0
 23 24  1  0  0  0  0
 22 24  1  0  0  0  0
  2 25  1  0  0  0  0
 25 26  1  0  0  0  0
 26 27  1  0  0  0  0
  2 27  1  0  0  0  0
M  END
> <ID>
CPD_817

$$$$
CPD_822
  Mrv1822 09091914012D          

 34 39  0  0  0  0            999 V2000
    3.5429    1.9924    0.0000 C   0  0  0  0  0  0  0  0  0  0  0  0
    3.7978    2.7770    0.0000 N   0  0  0  0  0  0  0  0  0  0  0  0
    3.3129    3.4444    0.0000 C   0  0  0  0  0  0  0  0  0  0  0  0
    3.7978    4.1119    0.0000 C   0  0  0  0  0  0  0  0  0  0  0  0
    4.5824    3.8569    0.0000 C   0  0  0  0  0  0  0  0  0  0  0  0
    5.2969    4.2694    0.0000 C   0  0  0  0  0  0  0  0  0  0  0  0
    6.0114    3.8569    0.0000 C   0  0  0  0  0  0  0  0  0  0  0  0
    6.7258    4.2694    0.0000 C   0  0  0  0  0  0  0  0  0  0  0  0
    6.7258    5.0944    0.0000 N   0  0  0  0  0  0  0  0  0  0  0  0
    6.0114    5.5069    0.0000 C   0  0  0  0  0  0  0  0  0  0  0  0
    6.0114    6.3319    0.0000 C   0  0  0  0  0  0  0  0  0  0  0  0
    5.2969    6.7444    0.0000 C   0  0  0  0  0  0  0  0  0  0  0  0
    5.2969    7.5694    0.0000 C   0  0  0  0  0  0  0  0  0  0  0  0
    6.0114    7.9819    0.0000 C   0  0  0  0  0  0  0  0  0  0  0  0
    6.1829    8.7889    0.0000 N   0  0  0  0  0  0  0  0  0  0  0  0
    5.6309    9.4020    0.0000 C   0  0  0  0  0  0  0  0  0  0  0  0
    7.0034    8.8751    0.0000 C   0  0  0  0  0  0  0  0  0  0  0  0
    7.3389    8.1215    0.0000 C   0  0  0  0  0  0  0  0  0  0  0  0
    6.7258    7.5694    0.0000 C   0  0  0  0  0  0  0  0  0  0  0  0
    6.7258    6.7444    0.0000 C   0  0  0  0  0  0  0  0  0  0  0  0
    7.4403    5.5069    0.0000 C   0  0  0  0  0  0  0  0  0  0  0  0
    7.4403    6.3319    0.0000 O   0  0  0  0  0  0  0  0  0  0  0  0
    8.1548    5.0944    0.0000 C   0  0  0  0  0  0  0  0  0  0  0  0
    8.9085    5.4300    0.0000 N   0  0  0  0  0  0  0  0  0  0  0  0
    9.4605    4.8169    0.0000 O   0  0  0  0  0  0  0  0  0  0  0  0
    9.0480    4.1024    0.0000 C   0  0  0  0  0  0  0  0  0  0  0  0
    9.3029    3.3178    0.0000 C   0  0  0  0  0  0  0  0  0  0  0  0
    8.7509    2.7047    0.0000 C   0  0  0  0  0  0  0  0  0  0  0  0
    7.9439    2.8762    0.0000 C   0  0  0  0  0  0  0  0  0  0  0  0
    7.6890    3.6609    0.0000 C   0  0  0  0  0  0  0  0  0  0  0  0
    8.2410    4.2740    0.0000 C   0  0  0  0  0  0  0  0  0  0  0  0
    6.0114    3.0319    0.0000 C   0  0  0  0  0  0  0  0  0  0  0  0
    5.2969    2.6194    0.0000 C   0  0  0  0  0  0  0  0  0  0  0  0
    4.5824    3.0319    0.0000 C   0  0  0  0  0  0  0  0  0  0  0  0
  1  2  1  0  0  0  0
  2  3  1  0  0  0  0
  3  4  2  0  0  0  0
  4  5  1  0  0  0  0
  5  6  2  0  0  0  0
  6  7  1  0  0  0  0
  7  8  1  0  0  0  0
  8  9  1  0  0  0  0
  9 10  1  0  0  0  0
 10 11  1  0  0  0  0
 11 12  2  0  0  0  0
 12 13  1  0  0  0  0
 13 14  2  0  0  0  0
 14 15  1  0  0  0  0
 15 16  1  0  0  0  0
 15 17  1  0  0  0  0
 17 18  2  0  0  0  0
 18 19  1  0  0  0  0
 14 19  1  0  0  0  0
 19 20  2  0  0  0  0
 11 20  1  0  0  0  0
  9 21  1  0  0  0  0
 21 22  2  0  0  0  0
 21 23  1  0  0  0  0
 23 24  2  0  0  0  0
 24 25  1  0  0  0  0
 25 26  1  0  0  0  0
 26 27  1  0  0  0  0
 27 28  1  0  0  0  0
 28 29  1  0  0  0  0
 29 30  1  0  0  0  0
 30 31  1  0  0  0  0
 23 31  1  0  0  0  0
 26 31  1  0  0  0  0
  7 32  2  0  0  0  0
 32 33  1  0  0  0  0
 33 34  2  0  0  0  0
  2 34  1  0  0  0  0
  5 34  1  0  0  0  0
M  END
> <ID>
CPD_822

$$$$
CPD_827
  Mrv1822 09091914012D          

 35 38  0  0  0  0            999 V2000
    0.3340    2.6576    0.0000 C   0  0  0  0  0  0  0  0  0  0  0  0
    0.8860    2.0445    0.0000 N   0  0  0  0  0  0  0  0  0  0  0  0
    1.7065    2.1307    0.0000 C   0  0  0  0  0  0  0  0  0  0  0  0
    2.0420    1.3770    0.0000 C   0  0  0  0  0  0  0  0  0  0  0  0
    1.4289    0.8250    0.0000 C   0  0  0  0  0  0  0  0  0  0  0  0
    1.4289   -0.0000    0.0000 C   0  0  0  0  0  0  0  0  0  0  0  0
    0.7145   -0.4125    0.0000 C   0  0  0  0  0  0  0  0  0  0  0  0
    0.7145   -1.2375    0.0000 C   0  0  0  0  0  0  0  0  0  0  0  0
    1.4289   -1.6500    0.0000 N   0  0  0  0  0  0  0  0  0  0  0  0
    1.4289   -2.4750    0.0000 C   0  0  0  0  0  0  0  0  0  0  0  0
    0.7145   -2.8875    0.0000 C   0  0  0  0  0  0  0  0  0  0  0  0
    0.7145   -3.7125    0.0000 C   0  0  0  0  0  0  0  0  0  0  0  0
    0.0000   -4.1250    0.0000 C   0  0  0  0  0  0  0  0  0  0  0  0
   -0.7145   -3.7125    0.0000 C   0  0  0  0  0  0  0  0  0  0  0  0
   -1.4991   -3.9674    0.0000 N   0  0  0  0  0  0  0  0  0  0  0  0
   -1.7540   -4.7521    0.0000 C   0  0  0  0  0  0  0  0  0  0  0  0
   -1.9840   -3.3000    0.0000 C   0  0  0  0  0  0  0  0  0  0  0  0
   -1.4991   -2.6326    0.0000 C   0  0  0  0  0  0  0  0  0  0  0  0
   -0.7145   -2.8875    0.0000 C   0  0  0  0  0  0  0  0  0  0  0  0
    0.0000   -2.4750    0.0000 C   0  0  0  0  0  0  0  0  0  0  0  0
    2.1434   -1.2375    0.0000 C   0  0  0  0  0  0  0  0  0  0  0  0
    2.1434   -0.4125    0.0000 O   0  0  0  0  0  0  0  0  0  0  0  0
    2.8579   -1.6500    0.0000 C   0  0  0  0  0  0  0  0  0  0  0  0
    3.5724   -1.2375    0.0000 N   0  0  0  0  0  0  0  0  0  0  0  0
    4.2868   -1.6500    0.0000 C   0  0  0  0  0  0  0  0  0  0  0  0
    5.0013   -1.2375    0.0000 C   0  0  0  0  0  0  0  0  0  0  0  0
    5.0013   -0.4125    0.0000 O   0  0  0  0  0  0  0  0  0  0  0  0
    5.7158   -1.6500    0.0000 O   0  0  0  0  0  0  0  0  0  0  0  0
    5.7158   -2.4750    0.0000 C   0  0  0  0  0  0  0  0  0  0  0  0
    5.7158   -3.3000    0.0000 C   0  0  0  0  0  0  0  0  0  0  0  0
    4.8908   -2.4750    0.0000 C   0  0  0  0  0  0  0  0  0  0  0  0
    6.5408   -2.4750    0.0000 C   0  0  0  0  0  0  0  0  0  0  0  0
    0.0000   -0.0000    0.0000 C   0  0  0  0  0  0  0  0  0  0  0  0
    0.0000    0.8250    0.0000 C   0  0  0  0  0  0  0  0  0  0  0  0
    0.7145    1.2375    0.0000 C   0  0  0  0  0  0  0  0  0  0  0  0
  1  2  1  0  0  0  0
  2  3  1  0  0  0  0
  3  4  2  0  0  0  0
  4  5  1  0  0  0  0
  5  6  2  0  0  0  0
  6  7  1  0  0  0  0
  7  8  1  0  0  0  0
  8  9  1  0  0  0  0
  9 10  1  0  0  0  0
 10 11  1  0  0  0  0
 11 12  2  0  0  0  0
 12 13  1  0  0  0  0
 13 14  2  0  0  0  0
 14 15  1  0  0  0  0
 15 16  1  0  0  0  0
 15 17  1  0  0  0  0
 17 18  2  0  0  0  0
 18 19  1  0  0  0  0
 14 19  1  0  0  0  0
 19 20  2  0  0  0  0
 11 20  1  0  0  0  0
  9 21  1  0  0  0  0
 21 22  2  0  0  0  0
 21 23  1  0  0  0  0
 23 24  1  0  0  0  0
 24 25  1  0  0  0  0
 25 26  1  0  0  0  0
 26 27  2  0  0  0  0
 26 28  1  0  0  0  0
 28 29  1  0  0  0  0
 29 30  1  0  0  0  0
 29 31  1  0  0  0  0
 29 32  1  0  0  0  0
  7 33  2  0  0  0  0
 33 34  1  0  0  0  0
 34 35  2  0  0  0  0
  2 35  1  0  0  0  0
  5 35  1  0  0  0  0
M  END
> <ID>
CPD_827

$$$$
CPD_832
  Mrv1822 09091914012D          

 36 40  0  0  0  0            999 V2000
    2.0789    3.7216    0.0000 C   0  0  0  0  0  0  0  0  0  0  0  0
    1.3566    3.3230    0.0000 N   0  0  0  0  0  0  0  0  0  0  0  0
    0.6096    3.6731    0.0000 C   0  0  0  0  0  0  0  0  0  0  0  0
    0.0458    3.0707    0.0000 C   0  0  0  0  0  0  0  0  0  0  0  0
    0.4444    2.3484    0.0000 C   0  0  0  0  0  0  0  0  0  0  0  0
    0.1744    1.5689    0.0000 C   0  0  0  0  0  0  0  0  0  0  0  0
    0.7145    0.9452    0.0000 C   0  0  0  0  0  0  0  0  0  0  0  0
    0.4444    0.1657    0.0000 C   0  0  0  0  0  0  0  0  0  0  0  0
    0.9845   -0.4579    0.0000 N   0  0  0  0  0  0  0  0  0  0  0  0
    0.7145   -1.2375    0.0000 C   0  0  0  0  0  0  0  0  0  0  0  0
   -0.0957   -1.3934    0.0000 C   0  0  0  0  0  0  0  0  0  0  0  0
   -0.3657   -2.1730    0.0000 C   0  0  0  0  0  0  0  0  0  0  0  0
   -1.1758   -2.3289    0.0000 C   0  0  0  0  0  0  0  0  0  0  0  0
   -1.7159   -1.7052    0.0000 C   0  0  0  0  0  0  0  0  0  0  0  0
   -2.5408   -1.6893    0.0000 N   0  0  0  0  0  0  0  0  0  0  0  0
   -3.0385   -2.3472    0.0000 C   0  0  0  0  0  0  0  0  0  0  0  0
   -2.7805   -0.8999    0.0000 C   0  0  0  0  0  0  0  0  0  0  0  0
   -2.1038   -0.4280    0.0000 C   0  0  0  0  0  0  0  0  0  0  0  0
   -1.4459   -0.9257    0.0000 C   0  0  0  0  0  0  0  0  0  0  0  0
   -0.6358   -0.7698    0.0000 C   0  0  0  0  0  0  0  0  0  0  0  0
    1.7946   -0.3020    0.0000 C   0  0  0  0  0  0  0  0  0  0  0  0
    2.0647    0.4775    0.0000 O   0  0  0  0  0  0  0  0  0  0  0  0
    2.3347   -0.9257    0.0000 C   0  0  0  0  0  0  0  0  0  0  0  0
    3.1449   -0.7698    0.0000 C   0  0  0  0  0  0  0  0  0  0  0  0
    3.6850   -1.3934    0.0000 C   0  0  0  0  0  0  0  0  0  0  0  0
    4.4951   -1.2375    0.0000 C   0  0  0  0  0  0  0  0  0  0  0  0
    4.7651   -0.4579    0.0000 O   0  0  0  0  0  0  0  0  0  0  0  0
    5.0352   -1.8611    0.0000 C   0  0  0  0  0  0  0  0  0  0  0  0
    5.8453   -1.7052    0.0000 C   0  0  0  0  0  0  0  0  0  0  0  0
    6.3854   -2.3289    0.0000 C   0  0  0  0  0  0  0  0  0  0  0  0
    6.1154   -3.1084    0.0000 C   0  0  0  0  0  0  0  0  0  0  0  0
    5.3052   -3.2643    0.0000 C   0  0  0  0  0  0  0  0  0  0  0  0
    4.7651   -2.6407    0.0000 C   0  0  0  0  0  0  0  0  0  0  0  0
    1.5246    1.1012    0.0000 C   0  0  0  0  0  0  0  0  0  0  0  0
    1.7946    1.8807    0.0000 C   0  0  0  0  0  0  0  0  0  0  0  0
    1.2546    2.5043    0.0000 C   0  0  0  0  0  0  0  0  0  0  0  0
  1  2  1  0  0  0  0
  2  3  1  0  0  0  0
  3  4  2  0  0  0  0
  4  5  1  0  0  0  0
  5  6  2  0  0  0  0
  6  7  1  0  0  0  0
  7  8  1  0  0  0  0
  8  9  1  0  0  0  0
  9 10  1  0  0  0  0
 10 11  1  0  0  0  0
 11 12  2  0  0  0  0
 12 13  1  0  0  0  0
 13 14  2  0  0  0  0
 14 15  1  0  0  0  0
 15 16  1  0  0  0  0
 15 17  1  0  0  0  0
 17 18  2  0  0  0  0
 18 19  1  0  0  0  0
 14 19  1  0  0  0  0
 19 20  2  0  0  0  0
 11 20  1  0  0  0  0
  9 21  1  0  0  0  0
 21 22  2  0  0  0  0
 21 23  1  0  0  0  0
 23 24  1  0  0  0  0
 24 25  1  0  0  0  0
 25 26  1  0  0  0  0
 26 27  2  0  0  0  0
 26 28  1  0  0  0  0
 28 29  2  0  0  0  0
 29 30  1  0  0  0  0
 30 31  2  0  0  0  0
 31 32  1  0  0  0  0
 32 33  2  0  0  0  0
 28 33  1  0  0  0  0
  7 34  2  0  0  0  0
 34 35  1  0  0  0  0
 35 36  2  0  0  0  0
  2 36  1  0  0  0  0
  5 36  1  0  0  0  0
M  END
> <ID>
CPD_832

$$$$
CPD_837
  Mrv1822 09091914012D          

 26 29  0  0  0  0            999 V2000
   -4.3862    1.4864    0.0000 C   0  0  0  0  0  0  0  0  0  0  0  0
   -3.6110    1.7686    0.0000 O   0  0  0  0  0  0  0  0  0  0  0  0
   -3.4677    2.5810    0.0000 C   0  0  0  0  0  0  0  0  0  0  0  0
   -4.0997    3.1113    0.0000 C   0  0  0  0  0  0  0  0  0  0  0  0
   -3.9564    3.9238    0.0000 C   0  0  0  0  0  0  0  0  0  0  0  0
   -3.1812    4.2060    0.0000 C   0  0  0  0  0  0  0  0  0  0  0  0
   -2.5492    3.6757    0.0000 C   0  0  0  0  0  0  0  0  0  0  0  0
   -2.6925    2.8632    0.0000 C   0  0  0  0  0  0  0  0  0  0  0  0
   -1.7740    3.9578    0.0000 C   0  0  0  0  0  0  0  0  0  0  0  0
   -1.6307    4.7703    0.0000 C   0  0  0  0  0  0  0  0  0  0  0  0
   -0.8555    5.0525    0.0000 C   0  0  0  0  0  0  0  0  0  0  0  0
   -0.2235    4.5222    0.0000 C   0  0  0  0  0  0  0  0  0  0  0  0
    0.5518    4.8043    0.0000 C   0  0  0  0  0  0  0  0  0  0  0  0
    1.1838    4.2740    0.0000 C   0  0  0  0  0  0  0  0  0  0  0  0
    1.0405    3.4616    0.0000 O   0  0  0  0  0  0  0  0  0  0  0  0
    1.9590    4.5562    0.0000 N   0  0  0  0  0  0  0  0  0  0  0  0
    2.5910    4.0259    0.0000 C   0  0  0  0  0  0  0  0  0  0  0  0
    3.0035    3.3114    0.0000 C   0  0  0  0  0  0  0  0  0  0  0  0
    2.1785    3.3114    0.0000 C   0  0  0  0  0  0  0  0  0  0  0  0
    3.2230    4.5562    0.0000 C   0  0  0  0  0  0  0  0  0  0  0  0
    3.1654    5.3792    0.0000 C   0  0  0  0  0  0  0  0  0  0  0  0
    3.9304    5.6882    0.0000 S   0  0  0  0  0  0  0  0  0  0  0  0
    4.4607    5.0563    0.0000 C   0  0  0  0  0  0  0  0  0  0  0  0
    4.0235    4.3566    0.0000 C   0  0  0  0  0  0  0  0  0  0  0  0
   -0.3667    3.7097    0.0000 C   0  0  0  0  0  0  0  0  0  0  0  0
   -1.1420    3.4275    0.0000 C   0  0  0  0  0  0  0  0  0  0  0  0
  1  2  1  0  0  0  0
  2  3  1  0  0  0  0
  3  4  2  0  0  0  0
  4  5  1  0  0  0  0
  5  6  2  0  0  0  0
  6  7  1  0  0  0  0
  7  8  2  0  0  0  0
  3  8  1  0  0  0  0
  7  9  1  0  0  0  0
  9 10  2  0  0  0  0
 10 11  1  0  0  0  0
 11 12  2  0  0  0  0
 12 13  1  0  0  0  0
 13 14  1  0  0  0  0
 14 15  2  0  0  0  0
 14 16  1  0  0  0  0
 16 17  1  0  0  0  0
 17 18  1  0  0  0  0
 18 19  1  0  0  0  0
 17 19  1  0  0  0  0
 17 20  1  0  0  0  0
 20 21  2  0  0  0  0
 21 22  1  0  0  0  0
 22 23  1  0  0  0  0
 23 24  2  0  0  0  0
 20 24  1  0  0  0  0
 12 25  1  0  0  0  0
 25 26  2  0  0  0  0
  9 26  1  0  0  0  0
M  END
> <ID>
CPD_837

$$$$
CPD_842
  Mrv1822 09091914012D          

 26 29  0  0  0  0            999 V2000
    5.2056   -1.6814    0.0000 O   0  0  0  0  0  0  0  0  0  0  0  0
    5.0623   -0.8690    0.0000 C   0  0  0  0  0  0  0  0  0  0  0  0
    4.2871   -0.5868    0.0000 N   0  0  0  0  0  0  0  0  0  0  0  0
    3.6551   -1.1171    0.0000 C   0  0  0  0  0  0  0  0  0  0  0  0
    3.2426   -1.8316    0.0000 C   0  0  0  0  0  0  0  0  0  0  0  0
    4.0676   -1.8316    0.0000 C   0  0  0  0  0  0  0  0  0  0  0  0
    3.0231   -0.5868    0.0000 C   0  0  0  0  0  0  0  0  0  0  0  0
    3.0806    0.2362    0.0000 C   0  0  0  0  0  0  0  0  0  0  0  0
    2.3157    0.5452    0.0000 S   0  0  0  0  0  0  0  0  0  0  0  0
    1.7854   -0.0868    0.0000 C   0  0  0  0  0  0  0  0  0  0  0  0
    2.2226   -0.7864    0.0000 C   0  0  0  0  0  0  0  0  0  0  0  0
    5.6943   -0.3387    0.0000 C   0  0  0  0  0  0  0  0  0  0  0  0
    5.5510    0.4738    0.0000 C   0  0  0  0  0  0  0  0  0  0  0  0
    6.1830    1.0041    0.0000 C   0  0  0  0  0  0  0  0  0  0  0  0
    6.9583    0.7219    0.0000 C   0  0  0  0  0  0  0  0  0  0  0  0
    7.1015   -0.0905    0.0000 C   0  0  0  0  0  0  0  0  0  0  0  0
    6.4695   -0.6208    0.0000 N   0  0  0  0  0  0  0  0  0  0  0  0
    6.6128   -1.4333    0.0000 S   0  0  0  0  0  0  0  0  0  0  0  0
    5.8003   -1.5766    0.0000 O   0  0  0  0  0  0  0  0  0  0  0  0
    7.4253   -1.2900    0.0000 O   0  0  0  0  0  0  0  0  0  0  0  0
    6.7561   -2.2458    0.0000 C   0  0  0  0  0  0  0  0  0  0  0  0
    7.5313   -2.5279    0.0000 C   0  0  0  0  0  0  0  0  0  0  0  0
    7.6746   -3.3404    0.0000 C   0  0  0  0  0  0  0  0  0  0  0  0
    7.0426   -3.8707    0.0000 C   0  0  0  0  0  0  0  0  0  0  0  0
    6.2673   -3.5885    0.0000 C   0  0  0  0  0  0  0  0  0  0  0  0
    6.1241   -2.7761    0.0000 C   0  0  0  0  0  0  0  0  0  0  0  0
  1  2  2  0  0  0  0
  2  3  1  0  0  0  0
  3  4  1  0  0  0  0
  4  5  1  0  0  0  0
  5  6  1  0  0  0  0
  4  6  1  0  0  0  0
  4  7  1  0  0  0  0
  7  8  2  0  0  0  0
  8  9  1  0  0  0  0
  9 10  1  0  0  0  0
 10 11  2  0  0  0  0
  7 11  1  0  0  0  0
  2 12  1  0  0  0  0
 12 13  1  0  0  0  0
 13 14  1  0  0  0  0
 14 15  1  0  0  0  0
 15 16  1  0  0  0  0
 16 17  1  0  0  0  0
 12 17  1  0  0  0  0
 17 18  1  0  0  0  0
 18 19  2  0  0  0  0
 18 20  2  0  0  0  0
 18 21  1  0  0  0  0
 21 22  2  0  0  0  0
 22 23  1  0  0  0  0
 23 24  2  0  0  0  0
 24 25  1  0  0  0  0
 25 26  2  0  0  0  0
 21 26  1  0  0  0  0
M  END
> <ID>
CPD_842

$$$$
CPD_847
  Mrv1822 09091914012D          

 22 24  0  0  0  0            999 V2000
    0.7145   -1.2375    0.0000 C   0  0  0  0  0  0  0  0  0  0  0  0
    0.7145   -0.4125    0.0000 C   0  0  0  0  0  0  0  0  0  0  0  0
   -0.0000    0.0000    0.0000 C   0  0  0  0  0  0  0  0  0  0  0  0
    0.0000    0.8250    0.0000 C   0  0  0  0  0  0  0  0  0  0  0  0
   -0.7145    1.2375    0.0000 Br  0  0  0  0  0  0  0  0  0  0  0  0
    0.7145    1.2375    0.0000 C   0  0  0  0  0  0  0  0  0  0  0  0
    1.4289    0.8250    0.0000 C   0  0  0  0  0  0  0  0  0  0  0  0
    2.1434    1.2375    0.0000 Br  0  0  0  0  0  0  0  0  0  0  0  0
    1.4289    0.0000    0.0000 C   0  0  0  0  0  0  0  0  0  0  0  0
    2.1434   -0.4125    0.0000 O   0  0  0  0  0  0  0  0  0  0  0  0
    2.8579    0.0000    0.0000 C   0  0  0  0  0  0  0  0  0  0  0  0
    3.5724   -0.4125    0.0000 C   0  0  0  0  0  0  0  0  0  0  0  0
    3.5724   -1.2375    0.0000 O   0  0  0  0  0  0  0  0  0  0  0  0
    4.2868    0.0000    0.0000 N   0  0  0  0  0  0  0  0  0  0  0  0
    5.0013   -0.4125    0.0000 C   0  0  0  0  0  0  0  0  0  0  0  0
    5.5316   -1.0445    0.0000 C   0  0  0  0  0  0  0  0  0  0  0  0
    4.7191   -1.1877    0.0000 C   0  0  0  0  0  0  0  0  0  0  0  0
    5.5316    0.2195    0.0000 C   0  0  0  0  0  0  0  0  0  0  0  0
    5.3320    1.0200    0.0000 C   0  0  0  0  0  0  0  0  0  0  0  0
    6.0317    1.4572    0.0000 S   0  0  0  0  0  0  0  0  0  0  0  0
    6.6636    0.9269    0.0000 C   0  0  0  0  0  0  0  0  0  0  0  0
    6.3546    0.1619    0.0000 C   0  0  0  0  0  0  0  0  0  0  0  0
  1  2  1  0  0  0  0
  2  3  2  0  0  0  0
  3  4  1  0  0  0  0
  4  5  1  0  0  0  0
  4  6  2  0  0  0  0
  6  7  1  0  0  0  0
  7  8  1  0  0  0  0
  7  9  2  0  0  0  0
  2  9  1  0  0  0  0
  9 10  1  0  0  0  0
 10 11  1  0  0  0  0
 11 12  1  0  0  0  0
 12 13  2  0  0  0  0
 12 14  1  0  0  0  0
 14 15  1  0  0  0  0
 15 16  1  0  0  0  0
 16 17  1  0  0  0  0
 15 17  1  0  0  0  0
 15 18  1  0  0  0  0
 18 19  2  0  0  0  0
 19 20  1  0  0  0  0
 20 21  1  0  0  0  0
 21 22  2  0  0  0  0
 18 22  1  0  0  0  0
M  END
> <ID>
CPD_847

$$$$
CPD_852
  Mrv1822 09091914012D          

 28 30  0  0  1  0            999 V2000
    7.1447   -7.4250    0.0000 C   0  0  0  0  0  0  0  0  0  0  0  0
    7.1447   -6.6000    0.0000 C   0  0  2  0  0  0  0  0  0  0  0  0
    6.4302   -6.1875    0.0000 N   0  0  0  0  0  0  0  0  0  0  0  0
    5.7158   -6.6000    0.0000 C   0  0  0  0  0  0  0  0  0  0  0  0
    5.7158   -7.4250    0.0000 O   0  0  0  0  0  0  0  0  0  0  0  0
    5.0013   -6.1875    0.0000 O   0  0  0  0  0  0  0  0  0  0  0  0
    4.2868   -6.6000    0.0000 C   0  0  0  0  0  0  0  0  0  0  0  0
    3.5724   -6.1875    0.0000 C   0  0  0  0  0  0  0  0  0  0  0  0
    2.8579   -6.6000    0.0000 C   0  0  0  0  0  0  0  0  0  0  0  0
    2.1434   -6.1875    0.0000 C   0  0  0  0  0  0  0  0  0  0  0  0
    2.1434   -5.3625    0.0000 C   0  0  0  0  0  0  0  0  0  0  0  0
    2.8579   -4.9500    0.0000 C   0  0  0  0  0  0  0  0  0  0  0  0
    3.5724   -5.3625    0.0000 C   0  0  0  0  0  0  0  0  0  0  0  0
    7.8592   -6.1875    0.0000 C   0  0  0  0  0  0  0  0  0  0  0  0
    7.8592   -5.3625    0.0000 O   0  0  0  0  0  0  0  0  0  0  0  0
    8.5737   -6.6000    0.0000 N   0  0  0  0  0  0  0  0  0  0  0  0
    9.2881   -6.1875    0.0000 C   0  0  0  0  0  0  0  0  0  0  0  0
    9.2881   -5.3625    0.0000 C   0  0  0  0  0  0  0  0  0  0  0  0
   10.0026   -4.9500    0.0000 C   0  0  0  0  0  0  0  0  0  0  0  0
   10.7171   -5.3625    0.0000 C   0  0  0  0  0  0  0  0  0  0  0  0
   10.7171   -6.1875    0.0000 N   0  0  0  0  0  0  0  0  0  0  0  0
   10.0026   -6.6000    0.0000 C   0  0  0  0  0  0  0  0  0  0  0  0
   11.4315   -6.6000    0.0000 C   0  0  0  0  0  0  0  0  0  0  0  0
   12.1460   -6.1875    0.0000 N   0  0  0  0  0  0  0  0  0  0  0  0
   12.8605   -6.6000    0.0000 C   0  0  0  0  0  0  0  0  0  0  0  0
   12.8605   -7.4250    0.0000 C   0  0  0  0  0  0  0  0  0  0  0  0
   12.1460   -7.8375    0.0000 N   0  0  0  0  0  0  0  0  0  0  0  0
   11.4315   -7.4250    0.0000 C   0  0  0  0  0  0  0  0  0  0  0  0
  2  1  1  6  0  0  0
  2  3  1  0  0  0  0
  3  4  1  0  0  0  0
  4  5  2  0  0  0  0
  4  6  1  0  0  0  0
  6  7  1  0  0  0  0
  7  8  1  0  0  0  0
  8  9  2  0  0  0  0
  9 10  1  0  0  0  0
 10 11  2  0  0  0  0
 11 12  1  0  0  0  0
 12 13  2  0  0  0  0
  8 13  1  0  0  0  0
  2 14  1  0  0  0  0
 14 15  2  0  0  0  0
 14 16  1  0  0  0  0
 16 17  1  0  0  0  0
 17 18  1  0  0  0  0
 18 19  1  0  0  0  0
 19 20  1  0  0  0  0
 20 21  1  0  0  0  0
 21 22  1  0  0  0  0
 17 22  1  0  0  0  0
 21 23  1  0  0  0  0
 23 24  2  0  0  0  0
 24 25  1  0  0  0  0
 25 26  2  0  0  0  0
 26 27  1  0  0  0  0
 27 28  2  0  0  0  0
 23 28  1  0  0  0  0
M  END
> <ID>
CPD_852

$$$$
CPD_857
  Mrv1822 09091914012D          

 22 24  0  0  0  0            999 V2000
    3.5724   -2.8875    0.0000 O   0  0  0  0  0  0  0  0  0  0  0  0
    3.5724   -3.7125    0.0000 C   0  0  0  0  0  0  0  0  0  0  0  0
    4.2868   -4.1250    0.0000 C   0  0  0  0  0  0  0  0  0  0  0  0
    4.2868   -4.9500    0.0000 C   0  0  0  0  0  0  0  0  0  0  0  0
    3.5724   -5.3625    0.0000 C   0  0  0  0  0  0  0  0  0  0  0  0
    2.8579   -4.9500    0.0000 C   0  0  0  0  0  0  0  0  0  0  0  0
    2.8579   -4.1250    0.0000 C   0  0  0  0  0  0  0  0  0  0  0  0
    5.0013   -3.7125    0.0000 C   0  0  0  0  0  0  0  0  0  0  0  0
    5.0013   -2.8875    0.0000 O   0  0  0  0  0  0  0  0  0  0  0  0
    5.7158   -4.1250    0.0000 N   0  0  0  0  0  0  0  0  0  0  0  0
    6.4302   -3.7125    0.0000 C   0  0  0  0  0  0  0  0  0  0  0  0
    6.4302   -2.8875    0.0000 C   0  0  0  0  0  0  0  0  0  0  0  0
    7.1447   -2.4750    0.0000 C   0  0  0  0  0  0  0  0  0  0  0  0
    7.8592   -2.8875    0.0000 C   0  0  0  0  0  0  0  0  0  0  0  0
    7.8592   -3.7125    0.0000 N   0  0  0  0  0  0  0  0  0  0  0  0
    7.1447   -4.1250    0.0000 C   0  0  0  0  0  0  0  0  0  0  0  0
    8.5737   -4.1250    0.0000 C   0  0  0  0  0  0  0  0  0  0  0  0
    9.2881   -3.7125    0.0000 N   0  0  0  0  0  0  0  0  0  0  0  0
   10.0026   -4.1250    0.0000 C   0  0  0  0  0  0  0  0  0  0  0  0
   10.0026   -4.9500    0.0000 C   0  0  0  0  0  0  0  0  0  0  0  0
    9.2881   -5.3625    0.0000 N   0  0  0  0  0  0  0  0  0  0  0  0
    8.5737   -4.9500    0.0000 C   0  0  0  0  0  0  0  0  0  0  0  0
  1  2  1  0  0  0  0
  2  3  2  0  0  0  0
  3  4  1  0  0  0  0
  4  5  2  0  0  0  0
  5  6  1  0  0  0  0
  6  7  2  0  0  0  0
  2  7  1  0  0  0  0
  3  8  1  0  0  0  0
  8  9  2  0  0  0  0
  8 10  1  0  0  0  0
 10 11  1  0  0  0  0
 11 12  1  0  0  0  0
 12 13  1  0  0  0  0
 13 14  1  0  0  0  0
 14 15  1  0  0  0  0
 15 16  1  0  0  0  0
 11 16  1  0  0  0  0
 15 17  1  0  0  0  0
 17 18  2  0  0  0  0
 18 19  1  0  0  0  0
 19 20  2  0  0  0  0
 20 21  1  0  0  0  0
 21 22  2  0  0  0  0
 17 22  1  0  0  0  0
M  END
> <ID>
CPD_857

$$$$
CPD_862
  Mrv1822 09091914012D          

 22 23  0  0  0  0            999 V2000
    2.1434   -5.3625    0.0000 C   0  0  0  0  0  0  0  0  0  0  0  0
    2.8579   -4.9500    0.0000 C   0  0  0  0  0  0  0  0  0  0  0  0
    2.8579   -4.1250    0.0000 C   0  0  0  0  0  0  0  0  0  0  0  0
    3.5724   -5.3625    0.0000 O   0  0  0  0  0  0  0  0  0  0  0  0
    4.2868   -4.9500    0.0000 C   0  0  0  0  0  0  0  0  0  0  0  0
    4.2868   -4.1250    0.0000 O   0  0  0  0  0  0  0  0  0  0  0  0
    5.0013   -5.3625    0.0000 C   0  0  0  0  0  0  0  0  0  0  0  0
    5.7158   -4.9500    0.0000 C   0  0  0  0  0  0  0  0  0  0  0  0
    5.7158   -4.1250    0.0000 O   0  0  0  0  0  0  0  0  0  0  0  0
    6.4302   -5.3625    0.0000 N   0  0  0  0  0  0  0  0  0  0  0  0
    7.1447   -4.9500    0.0000 C   0  0  0  0  0  0  0  0  0  0  0  0
    7.1447   -4.1250    0.0000 C   0  0  0  0  0  0  0  0  0  0  0  0
    7.8592   -3.7125    0.0000 C   0  0  0  0  0  0  0  0  0  0  0  0
    8.5737   -4.1250    0.0000 C   0  0  0  0  0  0  0  0  0  0  0  0
    8.5737   -4.9500    0.0000 N   0  0  0  0  0  0  0  0  0  0  0  0
    7.8592   -5.3625    0.0000 C   0  0  0  0  0  0  0  0  0  0  0  0
    9.2881   -5.3625    0.0000 C   0  0  0  0  0  0  0  0  0  0  0  0
   10.0026   -4.9500    0.0000 N   0  0  0  0  0  0  0  0  0  0  0  0
   10.7171   -5.3625    0.0000 C   0  0  0  0  0  0  0  0  0  0  0  0
   10.7171   -6.1875    0.0000 C   0  0  0  0  0  0  0  0  0  0  0  0
   10.0026   -6.6000    0.0000 N   0  0  0  0  0  0  0  0  0  0  0  0
    9.2881   -6.1875    0.0000 C   0  0  0  0  0  0  0  0  0  0  0  0
  1  2  1  0  0  0  0
  2  3  1  0  0  0  0
  2  4  1  0  0  0  0
  4  5  1  0  0  0  0
  5  6  2  0  0  0  0
  5  7  1  0  0  0  0
  7  8  1  0  0  0  0
  8  9  2  0  0  0  0
  8 10  1  0  0  0  0
 10 11  1  0  0  0  0
 11 12  1  0  0  0  0
 12 13  1  0  0  0  0
 13 14  1  0  0  0  0
 14 15  1  0  0  0  0
 15 16  1  0  0  0  0
 11 16  1  0  0  0  0
 15 17  1  0  0  0  0
 17 18  2  0  0  0  0
 18 19  1  0  0  0  0
 19 20  2  0  0  0  0
 20 21  1  0  0  0  0
 21 22  2  0  0  0  0
 17 22  1  0  0  0  0
M  END
> <ID>
CPD_862

$$$$
CPD_867
  Mrv1822 09091914012D          

 35 39  0  0  0  0            999 V2000
    8.1494    0.9434    0.0000 C   0  0  0  0  0  0  0  0  0  0  0  0
    7.3244    0.9434    0.0000 C   0  0  0  0  0  0  0  0  0  0  0  0
    6.9119    0.2290    0.0000 C   0  0  0  0  0  0  0  0  0  0  0  0
    6.0869    0.2290    0.0000 C   0  0  0  0  0  0  0  0  0  0  0  0
    5.6744    0.9434    0.0000 N   0  0  0  0  0  0  0  0  0  0  0  0
    4.8675    1.1150    0.0000 N   0  0  0  0  0  0  0  0  0  0  0  0
    4.7812    1.9354    0.0000 C   0  0  0  0  0  0  0  0  0  0  0  0
    5.5349    2.2710    0.0000 C   0  0  0  0  0  0  0  0  0  0  0  0
    6.0869    1.6579    0.0000 C   0  0  0  0  0  0  0  0  0  0  0  0
    6.9119    1.6579    0.0000 N   0  0  0  0  0  0  0  0  0  0  0  0
    4.0668    2.3479    0.0000 C   0  0  0  0  0  0  0  0  0  0  0  0
    4.0668    3.1729    0.0000 O   0  0  0  0  0  0  0  0  0  0  0  0
    3.3523    1.9354    0.0000 N   0  0  0  0  0  0  0  0  0  0  0  0
    3.3523    1.1104    0.0000 C   0  0  0  0  0  0  0  0  0  0  0  0
    2.6378    0.6979    0.0000 C   0  0  0  0  0  0  0  0  0  0  0  0
    1.9233    1.1104    0.0000 C   0  0  0  0  0  0  0  0  0  0  0  0
    1.9233    1.9354    0.0000 C   0  0  0  0  0  0  0  0  0  0  0  0
    2.6378    2.3479    0.0000 C   0  0  0  0  0  0  0  0  0  0  0  0
    1.1387    2.1904    0.0000 C   0  0  0  0  0  0  0  0  0  0  0  0
    0.8838    2.9750    0.0000 C   0  0  0  0  0  0  0  0  0  0  0  0
    0.0768    3.1465    0.0000 O   0  0  0  0  0  0  0  0  0  0  0  0
   -0.1781    3.9312    0.0000 C   0  0  0  0  0  0  0  0  0  0  0  0
   -0.9851    4.1027    0.0000 C   0  0  0  0  0  0  0  0  0  0  0  0
   -1.2400    4.8873    0.0000 C   0  0  0  0  0  0  0  0  0  0  0  0
   -0.6880    5.5004    0.0000 C   0  0  0  0  0  0  0  0  0  0  0  0
   -0.9429    6.2850    0.0000 F   0  0  0  0  0  0  0  0  0  0  0  0
    0.1190    5.3289    0.0000 C   0  0  0  0  0  0  0  0  0  0  0  0
    0.3739    4.5442    0.0000 C   0  0  0  0  0  0  0  0  0  0  0  0
    0.6538    1.5229    0.0000 N   0  0  0  0  0  0  0  0  0  0  0  0
    1.1387    0.8555    0.0000 N   0  0  0  0  0  0  0  0  0  0  0  0
    0.8838    0.0709    0.0000 C   0  0  0  0  0  0  0  0  0  0  0  0
    5.6744   -0.4855    0.0000 C   0  0  0  0  0  0  0  0  0  0  0  0
    5.2619   -1.2000    0.0000 F   0  0  0  0  0  0  0  0  0  0  0  0
    4.9600   -0.0730    0.0000 F   0  0  0  0  0  0  0  0  0  0  0  0
    6.3889   -0.8980    0.0000 F   0  0  0  0  0  0  0  0  0  0  0  0
  1  2  1  0  0  0  0
  2  3  1  0  0  0  0
  3  4  1  0  0  0  0
  4  5  1  0  0  0  0
  5  6  1  0  0  0  0
  6  7  2  0  0  0  0
  7  8  1  0  0  0  0
  8  9  2  0  0  0  0
  5  9  1  0  0  0  0
  9 10  1  0  0  0  0
  2 10  1  0  0  0  0
  7 11  1  0  0  0  0
 11 12  2  0  0  0  0
 11 13  1  0  0  0  0
 13 14  1  0  0  0  0
 14 15  1  0  0  0  0
 15 16  1  0  0  0  0
 16 17  2  0  0  0  0
 17 18  1  0  0  0  0
 13 18  1  0  0  0  0
 17 19  1  0  0  0  0
 19 20  1  0  0  0  0
 20 21  1  0  0  0  0
 21 22  1  0  0  0  0
 22 23  2  0  0  0  0
 23 24  1  0  0  0  0
 24 25  2  0  0  0  0
 25 26  1  0  0  0  0
 25 27  1  0  0  0  0
 27 28  2  0  0  0  0
 22 28  1  0  0  0  0
 19 29  2  0  0  0  0
 29 30  1  0  0  0  0
 16 30  1  0  0  0  0
 30 31  1  0  0  0  0
  4 32  1  0  0  0  0
 32 33  1  0  0  0  0
 32 34  1  0  0  0  0
 32 35  1  0  0  0  0
M  END
> <ID>
CPD_867

$$$$
CPD_872
  Mrv1822 09091914012D          

 30 33  0  0  0  0            999 V2000
   -0.3984    0.7541    0.0000 C   0  0  0  0  0  0  0  0  0  0  0  0
   -0.1435   -0.0305    0.0000 N   0  0  0  0  0  0  0  0  0  0  0  0
   -0.6284   -0.6979    0.0000 N   0  0  0  0  0  0  0  0  0  0  0  0
   -0.1435   -1.3654    0.0000 C   0  0  0  0  0  0  0  0  0  0  0  0
   -0.3984   -2.1500    0.0000 C   0  0  0  0  0  0  0  0  0  0  0  0
   -1.2054   -2.3215    0.0000 O   0  0  0  0  0  0  0  0  0  0  0  0
   -1.4604   -3.1062    0.0000 C   0  0  0  0  0  0  0  0  0  0  0  0
   -0.9083   -3.7192    0.0000 C   0  0  0  0  0  0  0  0  0  0  0  0
   -1.1633   -4.5039    0.0000 C   0  0  0  0  0  0  0  0  0  0  0  0
   -1.9702   -4.6754    0.0000 C   0  0  0  0  0  0  0  0  0  0  0  0
   -2.2252   -5.4600    0.0000 F   0  0  0  0  0  0  0  0  0  0  0  0
   -2.5223   -4.0623    0.0000 C   0  0  0  0  0  0  0  0  0  0  0  0
   -2.2673   -3.2777    0.0000 C   0  0  0  0  0  0  0  0  0  0  0  0
    0.6411   -1.1104    0.0000 C   0  0  0  0  0  0  0  0  0  0  0  0
    0.6411   -0.2854    0.0000 C   0  0  0  0  0  0  0  0  0  0  0  0
    1.3556    0.1271    0.0000 C   0  0  0  0  0  0  0  0  0  0  0  0
    2.0701   -0.2854    0.0000 C   0  0  0  0  0  0  0  0  0  0  0  0
    2.0701   -1.1104    0.0000 N   0  0  0  0  0  0  0  0  0  0  0  0
    1.3556   -1.5229    0.0000 C   0  0  0  0  0  0  0  0  0  0  0  0
    2.7845   -1.5229    0.0000 C   0  0  0  0  0  0  0  0  0  0  0  0
    2.7845   -2.3479    0.0000 O   0  0  0  0  0  0  0  0  0  0  0  0
    3.4990   -1.1104    0.0000 C   0  0  0  0  0  0  0  0  0  0  0  0
    4.2135   -1.5229    0.0000 N   0  0  0  0  0  0  0  0  0  0  0  0
    4.9279   -1.1104    0.0000 C   0  0  0  0  0  0  0  0  0  0  0  0
    4.9279   -0.2854    0.0000 O   0  0  0  0  0  0  0  0  0  0  0  0
    5.6424   -1.5229    0.0000 C   0  0  0  0  0  0  0  0  0  0  0  0
    6.3961   -1.1874    0.0000 C   0  0  0  0  0  0  0  0  0  0  0  0
    6.9481   -1.8005    0.0000 C   0  0  0  0  0  0  0  0  0  0  0  0
    6.5356   -2.5150    0.0000 C   0  0  0  0  0  0  0  0  0  0  0  0
    5.7286   -2.3434    0.0000 S   0  0  0  0  0  0  0  0  0  0  0  0
  1  2  1  0  0  0  0
  2  3  1  0  0  0  0
  3  4  2  0  0  0  0
  4  5  1  0  0  0  0
  5  6  1  0  0  0  0
  6  7  1  0  0  0  0
  7  8  2  0  0  0  0
  8  9  1  0  0  0  0
  9 10  2  0  0  0  0
 10 11  1  0  0  0  0
 10 12  1  0  0  0  0
 12 13  2  0  0  0  0
  7 13  1  0  0  0  0
  4 14  1  0  0  0  0
 14 15  2  0  0  0  0
  2 15  1  0  0  0  0
 15 16  1  0  0  0  0
 16 17  1  0  0  0  0
 17 18  1  0  0  0  0
 18 19  1  0  0  0  0
 14 19  1  0  0  0  0
 18 20  1  0  0  0  0
 20 21  2  0  0  0  0
 20 22  1  0  0  0  0
 22 23  1  0  0  0  0
 23 24  1  0  0  0  0
 24 25  2  0  0  0  0
 24 26  1  0  0  0  0
 26 27  2  0  0  0  0
 27 28  1  0  0  0  0
 28 29  2  0  0  0  0
 29 30  1  0  0  0  0
 26 30  1  0  0  0  0
M  END
> <ID>
CPD_872

$$$$
CPD_877
  Mrv1822 09091914012D          

 35 39  0  0  0  0            999 V2000
   -0.3984    0.7541    0.0000 C   0  0  0  0  0  0  0  0  0  0  0  0
   -0.1435   -0.0305    0.0000 N   0  0  0  0  0  0  0  0  0  0  0  0
   -0.6284   -0.6979    0.0000 N   0  0  0  0  0  0  0  0  0  0  0  0
   -0.1435   -1.3654    0.0000 C   0  0  0  0  0  0  0  0  0  0  0  0
   -0.3984   -2.1500    0.0000 C   0  0  0  0  0  0  0  0  0  0  0  0
   -1.2054   -2.3215    0.0000 O   0  0  0  0  0  0  0  0  0  0  0  0
   -1.4604   -3.1062    0.0000 C   0  0  0  0  0  0  0  0  0  0  0  0
   -0.9083   -3.7192    0.0000 C   0  0  0  0  0  0  0  0  0  0  0  0
   -1.1633   -4.5039    0.0000 C   0  0  0  0  0  0  0  0  0  0  0  0
   -1.9702   -4.6754    0.0000 C   0  0  0  0  0  0  0  0  0  0  0  0
   -2.2252   -5.4600    0.0000 F   0  0  0  0  0  0  0  0  0  0  0  0
   -2.5223   -4.0623    0.0000 C   0  0  0  0  0  0  0  0  0  0  0  0
   -2.2673   -3.2777    0.0000 C   0  0  0  0  0  0  0  0  0  0  0  0
    0.6411   -1.1104    0.0000 C   0  0  0  0  0  0  0  0  0  0  0  0
    0.6411   -0.2854    0.0000 C   0  0  0  0  0  0  0  0  0  0  0  0
    1.3556    0.1271    0.0000 C   0  0  0  0  0  0  0  0  0  0  0  0
    2.0701   -0.2854    0.0000 C   0  0  0  0  0  0  0  0  0  0  0  0
    2.0701   -1.1104    0.0000 N   0  0  0  0  0  0  0  0  0  0  0  0
    1.3556   -1.5229    0.0000 C   0  0  0  0  0  0  0  0  0  0  0  0
    2.7845   -1.5229    0.0000 C   0  0  0  0  0  0  0  0  0  0  0  0
    3.4990   -1.1104    0.0000 O   0  0  0  0  0  0  0  0  0  0  0  0
    2.7845   -2.3479    0.0000 C   0  0  0  0  0  0  0  0  0  0  0  0
    3.4520   -2.8329    0.0000 C   0  0  0  0  0  0  0  0  0  0  0  0
    4.2366   -2.5779    0.0000 C   0  0  0  0  0  0  0  0  0  0  0  0
    3.1970   -3.6175    0.0000 N   0  0  0  0  0  0  0  0  0  0  0  0
    2.3720   -3.6175    0.0000 N   0  0  0  0  0  0  0  0  0  0  0  0
    2.1171   -2.8329    0.0000 C   0  0  0  0  0  0  0  0  0  0  0  0
    1.3325   -2.5779    0.0000 C   0  0  0  0  0  0  0  0  0  0  0  0
    3.6819   -4.2849    0.0000 C   0  0  0  0  0  0  0  0  0  0  0  0
    4.5024   -4.1987    0.0000 C   0  0  0  0  0  0  0  0  0  0  0  0
    4.9874   -4.8661    0.0000 C   0  0  0  0  0  0  0  0  0  0  0  0
    4.6518   -5.6198    0.0000 C   0  0  0  0  0  0  0  0  0  0  0  0
    5.1367   -6.2872    0.0000 F   0  0  0  0  0  0  0  0  0  0  0  0
    3.8313   -5.7060    0.0000 C   0  0  0  0  0  0  0  0  0  0  0  0
    3.3464   -5.0386    0.0000 C   0  0  0  0  0  0  0  0  0  0  0  0
  1  2  1  0  0  0  0
  2  3  1  0  0  0  0
  3  4  2  0  0  0  0
  4  5  1  0  0  0  0
  5  6  1  0  0  0  0
  6  7  1  0  0  0  0
  7  8  2  0  0  0  0
  8  9  1  0  0  0  0
  9 10  2  0  0  0  0
 10 11  1  0  0  0  0
 10 12  1  0  0  0  0
 12 13  2  0  0  0  0
  7 13  1  0  0  0  0
  4 14  1  0  0  0  0
 14 15  2  0  0  0  0
  2 15  1  0  0  0  0
 15 16  1  0  0  0  0
 16 17  1  0  0  0  0
 17 18  1  0  0  0  0
 18 19  1  0  0  0  0
 14 19  1  0  0  0  0
 18 20  1  0  0  0  0
 20 21  2  0  0  0  0
 20 22  1  0  0  0  0
 22 23  2  0  0  0  0
 23 24  1  0  0  0  0
 23 25  1  0  0  0  0
 25 26  1  0  0  0  0
 26 27  2  0  0  0  0
 22 27  1  0  0  0  0
 27 28  1  0  0  0  0
 25 29  1  0  0  0  0
 29 30  2  0  0  0  0
 30 31  1  0  0  0  0
 31 32  2  0  0  0  0
 32 33  1  0  0  0  0
 32 34  1  0  0  0  0
 34 35  2  0  0  0  0
 29 35  1  0  0  0  0
M  END
> <ID>
CPD_877

$$$$
CPD_882
  Mrv1822 09091914012D          

 32 34  0  0  1  0            999 V2000
    4.0668    0.6979    0.0000 C   0  0  0  0  0  0  0  0  0  0  0  0
    4.7812    1.1104    0.0000 C   0  0  0  0  0  0  0  0  0  0  0  0
    4.7812    1.9354    0.0000 C   0  0  1  0  0  0  0  0  0  0  0  0
    5.4957    2.3479    0.0000 N   0  0  0  0  0  0  0  0  0  0  0  0
    6.2102    1.9354    0.0000 C   0  0  0  0  0  0  0  0  0  0  0  0
    6.2102    1.1104    0.0000 O   0  0  0  0  0  0  0  0  0  0  0  0
    6.9246    2.3479    0.0000 O   0  0  0  0  0  0  0  0  0  0  0  0
    7.6391    1.9354    0.0000 C   0  0  0  0  0  0  0  0  0  0  0  0
    8.3536    1.5229    0.0000 C   0  0  0  0  0  0  0  0  0  0  0  0
    8.0516    2.6499    0.0000 C   0  0  0  0  0  0  0  0  0  0  0  0
    7.2266    1.2210    0.0000 C   0  0  0  0  0  0  0  0  0  0  0  0
    4.0668    2.3479    0.0000 C   0  0  0  0  0  0  0  0  0  0  0  0
    4.0668    3.1729    0.0000 O   0  0  0  0  0  0  0  0  0  0  0  0
    3.3523    1.9354    0.0000 N   0  0  0  0  0  0  0  0  0  0  0  0
    3.3523    1.1104    0.0000 C   0  0  0  0  0  0  0  0  0  0  0  0
    2.6378    0.6979    0.0000 C   0  0  0  0  0  0  0  0  0  0  0  0
    1.9233    1.1104    0.0000 C   0  0  0  0  0  0  0  0  0  0  0  0
    1.9233    1.9354    0.0000 C   0  0  0  0  0  0  0  0  0  0  0  0
    2.6378    2.3479    0.0000 C   0  0  0  0  0  0  0  0  0  0  0  0
    1.1387    2.1904    0.0000 C   0  0  0  0  0  0  0  0  0  0  0  0
    0.8838    2.9750    0.0000 C   0  0  0  0  0  0  0  0  0  0  0  0
    0.0768    3.1465    0.0000 O   0  0  0  0  0  0  0  0  0  0  0  0
   -0.4752    2.5334    0.0000 C   0  0  0  0  0  0  0  0  0  0  0  0
   -0.2203    1.7488    0.0000 C   0  0  0  0  0  0  0  0  0  0  0  0
   -0.7723    1.1357    0.0000 C   0  0  0  0  0  0  0  0  0  0  0  0
   -1.5793    1.3072    0.0000 C   0  0  0  0  0  0  0  0  0  0  0  0
   -2.1313    0.6942    0.0000 F   0  0  0  0  0  0  0  0  0  0  0  0
   -1.8342    2.0919    0.0000 C   0  0  0  0  0  0  0  0  0  0  0  0
   -1.2822    2.7050    0.0000 C   0  0  0  0  0  0  0  0  0  0  0  0
    0.6538    1.5229    0.0000 N   0  0  0  0  0  0  0  0  0  0  0  0
    1.1387    0.8555    0.0000 N   0  0  0  0  0  0  0  0  0  0  0  0
    0.8838    0.0709    0.0000 C   0  0  0  0  0  0  0  0  0  0  0  0
  1  2  1  0  0  0  0
  3  2  1  0  0  0  0
  3  4  1  6  0  0  0
  4  5  1  0  0  0  0
  5  6  2  0  0  0  0
  5  7  1  0  0  0  0
  7  8  1  0  0  0  0
  8  9  1  0  0  0  0
  8 10  1  0  0  0  0
  8 11  1  0  0  0  0
  3 12  1  0  0  0  0
 12 13  2  0  0  0  0
 12 14  1  0  0  0  0
 14 15  1  0  0  0  0
 15 16  1  0  0  0  0
 16 17  1  0  0  0  0
 17 18  2  0  0  0  0
 18 19  1  0  0  0  0
 14 19  1  0  0  0  0
 18 20  1  0  0  0  0
 20 21  1  0  0  0  0
 21 22  1  0  0  0  0
 22 23  1  0  0  0  0
 23 24  2  0  0  0  0
 24 25  1  0  0  0  0
 25 26  2  0  0  0  0
 26 27  1  0  0  0  0
 26 28  1  0  0  0  0
 28 29  2  0  0  0  0
 23 29  1  0  0  0  0
 20 30  2  0  0  0  0
 30 31  1  0  0  0  0
 17 31  1  0  0  0  0
 31 32  1  0  0  0  0
M  END
> <ID>
CPD_882

$$$$
CPD_887
  Mrv1822 09091914012D          

 31 34  0  0  0  0            999 V2000
    4.0668   -0.1271    0.0000 C   0  0  0  0  0  0  0  0  0  0  0  0
    4.0668    0.6979    0.0000 O   0  0  0  0  0  0  0  0  0  0  0  0
    4.7812    1.1104    0.0000 C   0  0  0  0  0  0  0  0  0  0  0  0
    4.7812    1.9354    0.0000 C   0  0  0  0  0  0  0  0  0  0  0  0
    5.4957    2.3479    0.0000 C   0  0  0  0  0  0  0  0  0  0  0  0
    6.2102    1.9354    0.0000 C   0  0  0  0  0  0  0  0  0  0  0  0
    6.9246    2.3479    0.0000 F   0  0  0  0  0  0  0  0  0  0  0  0
    6.2102    1.1104    0.0000 C   0  0  0  0  0  0  0  0  0  0  0  0
    5.4957    0.6979    0.0000 C   0  0  0  0  0  0  0  0  0  0  0  0
    5.4957   -0.1271    0.0000 F   0  0  0  0  0  0  0  0  0  0  0  0
    4.0668    2.3479    0.0000 C   0  0  0  0  0  0  0  0  0  0  0  0
    4.0668    3.1729    0.0000 O   0  0  0  0  0  0  0  0  0  0  0  0
    3.3523    1.9354    0.0000 N   0  0  0  0  0  0  0  0  0  0  0  0
    3.3523    1.1104    0.0000 C   0  0  0  0  0  0  0  0  0  0  0  0
    2.6378    0.6979    0.0000 C   0  0  0  0  0  0  0  0  0  0  0  0
    1.9233    1.1104    0.0000 C   0  0  0  0  0  0  0  0  0  0  0  0
    1.9233    1.9354    0.0000 C   0  0  0  0  0  0  0  0  0  0  0  0
    2.6378    2.3479    0.0000 C   0  0  0  0  0  0  0  0  0  0  0  0
    1.1387    2.1904    0.0000 C   0  0  0  0  0  0  0  0  0  0  0  0
    0.8838    2.9750    0.0000 C   0  0  0  0  0  0  0  0  0  0  0  0
    0.0768    3.1465    0.0000 O   0  0  0  0  0  0  0  0  0  0  0  0
   -0.1781    3.9312    0.0000 C   0  0  0  0  0  0  0  0  0  0  0  0
   -0.9851    4.1027    0.0000 C   0  0  0  0  0  0  0  0  0  0  0  0
   -1.2400    4.8873    0.0000 C   0  0  0  0  0  0  0  0  0  0  0  0
   -0.6880    5.5004    0.0000 C   0  0  0  0  0  0  0  0  0  0  0  0
   -0.9429    6.2850    0.0000 F   0  0  0  0  0  0  0  0  0  0  0  0
    0.1190    5.3289    0.0000 C   0  0  0  0  0  0  0  0  0  0  0  0
    0.3739    4.5442    0.0000 C   0  0  0  0  0  0  0  0  0  0  0  0
    0.6538    1.5229    0.0000 N   0  0  0  0  0  0  0  0  0  0  0  0
    1.1387    0.8555    0.0000 N   0  0  0  0  0  0  0  0  0  0  0  0
    0.8838    0.0709    0.0000 C   0  0  0  0  0  0  0  0  0  0  0  0
  1  2  1  0  0  0  0
  2  3  1  0  0  0  0
  3  4  2  0  0  0  0
  4  5  1  0  0  0  0
  5  6  2  0  0  0  0
  6  7  1  0  0  0  0
  6  8  1  0  0  0  0
  8  9  2  0  0  0  0
  3  9  1  0  0  0  0
  9 10  1  0  0  0  0
  4 11  1  0  0  0  0
 11 12  2  0  0  0  0
 11 13  1  0  0  0  0
 13 14  1  0  0  0  0
 14 15  1  0  0  0  0
 15 16  1  0  0  0  0
 16 17  2  0  0  0  0
 17 18  1  0  0  0  0
 13 18  1  0  0  0  0
 17 19  1  0  0  0  0
 19 20  1  0  0  0  0
 20 21  1  0  0  0  0
 21 22  1  0  0  0  0
 22 23  2  0  0  0  0
 23 24  1  0  0  0  0
 24 25  2  0  0  0  0
 25 26  1  0  0  0  0
 25 27  1  0  0  0  0
 27 28  2  0  0  0  0
 22 28  1  0  0  0  0
 19 29  2  0  0  0  0
 29 30  1  0  0  0  0
 16 30  1  0  0  0  0
 30 31  1  0  0  0  0
M  END
> <ID>
CPD_887

$$$$
CPD_892
  Mrv1822 09091914012D          

 32 34  0  0  0  0            999 V2000
   -1.0966   -2.9456    0.0000 C   0  0  0  0  0  0  0  0  0  0  0  0
   -0.3822   -3.3581    0.0000 C   0  0  0  0  0  0  0  0  0  0  0  0
   -0.3822   -4.1831    0.0000 O   0  0  0  0  0  0  0  0  0  0  0  0
    0.3323   -4.5956    0.0000 C   0  0  0  0  0  0  0  0  0  0  0  0
    1.0468   -4.1831    0.0000 O   0  0  0  0  0  0  0  0  0  0  0  0
    0.3323   -5.4206    0.0000 C   0  0  0  0  0  0  0  0  0  0  0  0
    1.0468   -5.8331    0.0000 C   0  0  0  0  0  0  0  0  0  0  0  0
    1.0468   -6.6581    0.0000 C   0  0  0  0  0  0  0  0  0  0  0  0
    0.3323   -7.0706    0.0000 N   0  0  0  0  0  0  0  0  0  0  0  0
   -0.3822   -6.6581    0.0000 C   0  0  0  0  0  0  0  0  0  0  0  0
   -0.3822   -5.8331    0.0000 C   0  0  0  0  0  0  0  0  0  0  0  0
    1.7613   -5.4206    0.0000 C   0  0  0  0  0  0  0  0  0  0  0  0
    1.7613   -4.5956    0.0000 O   0  0  0  0  0  0  0  0  0  0  0  0
    2.4757   -5.8331    0.0000 N   0  0  0  0  0  0  0  0  0  0  0  0
    2.4757   -6.6581    0.0000 C   0  0  0  0  0  0  0  0  0  0  0  0
    3.1902   -5.4206    0.0000 C   0  0  0  0  0  0  0  0  0  0  0  0
    3.9047   -5.8331    0.0000 C   0  0  0  0  0  0  0  0  0  0  0  0
    4.6191   -5.4206    0.0000 C   0  0  0  0  0  0  0  0  0  0  0  0
    4.7054   -4.6001    0.0000 N   0  0  0  0  0  0  0  0  0  0  0  0
    5.5124   -4.4286    0.0000 O   0  0  0  0  0  0  0  0  0  0  0  0
    5.9249   -5.1431    0.0000 C   0  0  0  0  0  0  0  0  0  0  0  0
    6.7453   -5.2293    0.0000 C   0  0  0  0  0  0  0  0  0  0  0  0
    7.2303   -4.5619    0.0000 O   0  0  0  0  0  0  0  0  0  0  0  0
    8.0507   -4.6481    0.0000 C   0  0  0  0  0  0  0  0  0  0  0  0
    8.5357   -3.9807    0.0000 C   0  0  0  0  0  0  0  0  0  0  0  0
    9.3561   -4.0669    0.0000 C   0  0  0  0  0  0  0  0  0  0  0  0
    9.6917   -4.8206    0.0000 C   0  0  0  0  0  0  0  0  0  0  0  0
   10.5122   -4.9068    0.0000 C   0  0  0  0  0  0  0  0  0  0  0  0
    9.2068   -5.4880    0.0000 C   0  0  0  0  0  0  0  0  0  0  0  0
    8.3863   -5.4018    0.0000 C   0  0  0  0  0  0  0  0  0  0  0  0
    7.9014   -6.0692    0.0000 C   0  0  0  0  0  0  0  0  0  0  0  0
    5.3728   -5.7562    0.0000 N   0  0  0  0  0  0  0  0  0  0  0  0
  1  2  1  0  0  0  0
  2  3  1  0  0  0  0
  3  4  1  0  0  0  0
  4  5  2  0  0  0  0
  4  6  1  0  0  0  0
  6  7  2  0  0  0  0
  7  8  1  0  0  0  0
  8  9  2  0  0  0  0
  9 10  1  0  0  0  0
 10 11  2  0  0  0  0
  6 11  1  0  0  0  0
  7 12  1  0  0  0  0
 12 13  2  0  0  0  0
 12 14  1  0  0  0  0
 14 15  1  0  0  0  0
 14 16  1  0  0  0  0
 16 17  1  0  0  0  0
 17 18  1  0  0  0  0
 18 19  2  0  0  0  0
 19 20  1  0  0  0  0
 20 21  1  0  0  0  0
 21 22  1  0  0  0  0
 22 23  1  0  0  0  0
 23 24  1  0  0  0  0
 24 25  2  0  0  0  0
 25 26  1  0  0  0  0
 26 27  2  0  0  0  0
 27 28  1  0  0  0  0
 27 29  1  0  0  0  0
 29 30  2  0  0  0  0
 24 30  1  0  0  0  0
 30 31  1  0  0  0  0
 21 32  2  0  0  0  0
 18 32  1  0  0  0  0
M  END
> <ID>
CPD_892

$$$$
CPD_897
  Mrv1822 09091914012D          

 25 26  0  0  0  0            999 V2000
    1.4289    0.0000    0.0000 C   0  0  0  0  0  0  0  0  0  0  0  0
    2.1434   -0.4125    0.0000 N   0  0  0  0  0  0  0  0  0  0  0  0
    2.1434   -1.2375    0.0000 C   0  0  0  0  0  0  0  0  0  0  0  0
    1.4289   -1.6500    0.0000 C   0  0  0  0  0  0  0  0  0  0  0  0
    1.4289   -2.4750    0.0000 C   0  0  0  0  0  0  0  0  0  0  0  0
    2.0964   -2.9599    0.0000 N   0  0  0  0  0  0  0  0  0  0  0  0
    1.8414   -3.7445    0.0000 O   0  0  0  0  0  0  0  0  0  0  0  0
    1.0164   -3.7445    0.0000 C   0  0  0  0  0  0  0  0  0  0  0  0
    0.5315   -4.4120    0.0000 C   0  0  0  0  0  0  0  0  0  0  0  0
    0.8671   -5.1657    0.0000 O   0  0  0  0  0  0  0  0  0  0  0  0
    0.3822   -5.8331    0.0000 C   0  0  0  0  0  0  0  0  0  0  0  0
    0.7177   -6.5868    0.0000 C   0  0  0  0  0  0  0  0  0  0  0  0
    0.2328   -7.2542    0.0000 C   0  0  0  0  0  0  0  0  0  0  0  0
   -0.5877   -7.1680    0.0000 C   0  0  0  0  0  0  0  0  0  0  0  0
   -1.0726   -7.8354    0.0000 C   0  0  0  0  0  0  0  0  0  0  0  0
   -0.9232   -6.4143    0.0000 C   0  0  0  0  0  0  0  0  0  0  0  0
   -0.4383   -5.7469    0.0000 C   0  0  0  0  0  0  0  0  0  0  0  0
   -0.7739   -4.9932    0.0000 C   0  0  0  0  0  0  0  0  0  0  0  0
    0.7615   -2.9599    0.0000 N   0  0  0  0  0  0  0  0  0  0  0  0
    2.8579   -0.0000    0.0000 C   0  0  0  0  0  0  0  0  0  0  0  0
    3.5724   -0.4125    0.0000 O   0  0  0  0  0  0  0  0  0  0  0  0
    2.8579    0.8250    0.0000 C   0  0  0  0  0  0  0  0  0  0  0  0
    2.8579    1.6500    0.0000 C   0  0  0  0  0  0  0  0  0  0  0  0
    3.6829    0.8250    0.0000 C   0  0  0  0  0  0  0  0  0  0  0  0
    2.0329    0.8250    0.0000 O   0  0  0  0  0  0  0  0  0  0  0  0
  1  2  1  0  0  0  0
  2  3  1  0  0  0  0
  3  4  1  0  0  0  0
  4  5  1  0  0  0  0
  5  6  2  0  0  0  0
  6  7  1  0  0  0  0
  7  8  1  0  0  0  0
  8  9  1  0  0  0  0
  9 10  1  0  0  0  0
 10 11  1  0  0  0  0
 11 12  2  0  0  0  0
 12 13  1  0  0  0  0
 13 14  2  0  0  0  0
 14 15  1  0  0  0  0
 14 16  1  0  0  0  0
 16 17  2  0  0  0  0
 11 17  1  0  0  0  0
 17 18  1  0  0  0  0
  8 19  2  0  0  0  0
  5 19  1  0  0  0  0
  2 20  1  0  0  0  0
 20 21  2  0  0  0  0
 20 22  1  0  0  0  0
 22 23  1  0  0  0  0
 22 24  1  0  0  0  0
 22 25  1  0  0  0  0
M  END
> <ID>
CPD_897

$$$$
CPD_902
  Mrv1822 09091914012D          

 34 38  0  0  0  0            999 V2000
    4.5607    6.8563    0.0000 C   0  0  0  0  0  0  0  0  0  0  0  0
    3.7402    6.7701    0.0000 N   0  0  0  0  0  0  0  0  0  0  0  0
    3.1882    7.3832    0.0000 N   0  0  0  0  0  0  0  0  0  0  0  0
    2.4345    7.0476    0.0000 C   0  0  0  0  0  0  0  0  0  0  0  0
    1.7200    7.4601    0.0000 C   0  0  0  0  0  0  0  0  0  0  0  0
    1.7200    8.2851    0.0000 O   0  0  0  0  0  0  0  0  0  0  0  0
    1.0056    8.6976    0.0000 C   0  0  0  0  0  0  0  0  0  0  0  0
    1.0056    9.5226    0.0000 C   0  0  0  0  0  0  0  0  0  0  0  0
    0.2911    9.9351    0.0000 C   0  0  0  0  0  0  0  0  0  0  0  0
    0.2911   10.7601    0.0000 C   0  0  0  0  0  0  0  0  0  0  0  0
    1.0056   11.1726    0.0000 C   0  0  0  0  0  0  0  0  0  0  0  0
    1.7200   10.7601    0.0000 C   0  0  0  0  0  0  0  0  0  0  0  0
    1.7200    9.9351    0.0000 C   0  0  0  0  0  0  0  0  0  0  0  0
    2.4345    9.5226    0.0000 F   0  0  0  0  0  0  0  0  0  0  0  0
    2.5207    6.2272    0.0000 C   0  0  0  0  0  0  0  0  0  0  0  0
    3.3277    6.0556    0.0000 C   0  0  0  0  0  0  0  0  0  0  0  0
    3.5826    5.2710    0.0000 C   0  0  0  0  0  0  0  0  0  0  0  0
    3.0306    4.6579    0.0000 C   0  0  0  0  0  0  0  0  0  0  0  0
    2.2236    4.8294    0.0000 N   0  0  0  0  0  0  0  0  0  0  0  0
    1.9687    5.6141    0.0000 C   0  0  0  0  0  0  0  0  0  0  0  0
    1.6716    4.2163    0.0000 C   0  0  0  0  0  0  0  0  0  0  0  0
    0.8646    4.3879    0.0000 O   0  0  0  0  0  0  0  0  0  0  0  0
    1.9265    3.4317    0.0000 C   0  0  0  0  0  0  0  0  0  0  0  0
    1.4416    2.7643    0.0000 C   0  0  0  0  0  0  0  0  0  0  0  0
    0.6166    2.7643    0.0000 N   0  0  0  0  0  0  0  0  0  0  0  0
    0.2041    2.0498    0.0000 C   0  0  0  0  0  0  0  0  0  0  0  0
    0.6166    1.3353    0.0000 C   0  0  0  0  0  0  0  0  0  0  0  0
   -0.6209    2.0498    0.0000 O   0  0  0  0  0  0  0  0  0  0  0  0
    1.9265    2.0968    0.0000 S   0  0  0  0  0  0  0  0  0  0  0  0
    2.7112    2.3518    0.0000 C   0  0  0  0  0  0  0  0  0  0  0  0
    2.7112    3.1768    0.0000 C   0  0  0  0  0  0  0  0  0  0  0  0
    3.4958    3.4317    0.0000 C   0  0  0  0  0  0  0  0  0  0  0  0
    3.9807    2.7643    0.0000 C   0  0  0  0  0  0  0  0  0  0  0  0
    3.4958    2.0968    0.0000 C   0  0  0  0  0  0  0  0  0  0  0  0
  1  2  1  0  0  0  0
  2  3  1  0  0  0  0
  3  4  2  0  0  0  0
  4  5  1  0  0  0  0
  5  6  1  0  0  0  0
  6  7  1  0  0  0  0
  7  8  1  0  0  0  0
  8  9  2  0  0  0  0
  9 10  1  0  0  0  0
 10 11  2  0  0  0  0
 11 12  1  0  0  0  0
 12 13  2  0  0  0  0
  8 13  1  0  0  0  0
 13 14  1  0  0  0  0
  4 15  1  0  0  0  0
 15 16  2  0  0  0  0
  2 16  1  0  0  0  0
 16 17  1  0  0  0  0
 17 18  1  0  0  0  0
 18 19  1  0  0  0  0
 19 20  1  0  0  0  0
 15 20  1  0  0  0  0
 19 21  1  0  0  0  0
 21 22  2  0  0  0  0
 21 23  1  0  0  0  0
 23 24  2  0  0  0  0
 24 25  1  0  0  0  0
 25 26  1  0  0  0  0
 26 27  1  0  0  0  0
 26 28  2  0  0  0  0
 24 29  1  0  0  0  0
 29 30  1  0  0  0  0
 30 31  2  0  0  0  0
 23 31  1  0  0  0  0
 31 32  1  0  0  0  0
 32 33  1  0  0  0  0
 33 34  1  0  0  0  0
 30 34  1  0  0  0  0
M  END
> <ID>
CPD_902

$$$$
CPD_907
  Mrv1822 09091914012D          

 34 39  0  0  0  0            999 V2000
    7.2497    0.0709    0.0000 C   0  0  0  0  0  0  0  0  0  0  0  0
    6.9948    0.8555    0.0000 N   0  0  0  0  0  0  0  0  0  0  0  0
    7.4797    1.5229    0.0000 N   0  0  0  0  0  0  0  0  0  0  0  0
    6.9948    2.1904    0.0000 C   0  0  0  0  0  0  0  0  0  0  0  0
    7.2497    2.9750    0.0000 C   0  0  0  0  0  0  0  0  0  0  0  0
    8.0567    3.1465    0.0000 O   0  0  0  0  0  0  0  0  0  0  0  0
    8.3116    3.9312    0.0000 C   0  0  0  0  0  0  0  0  0  0  0  0
    9.1186    4.1027    0.0000 C   0  0  0  0  0  0  0  0  0  0  0  0
    9.3736    4.8873    0.0000 C   0  0  0  0  0  0  0  0  0  0  0  0
   10.1805    5.0588    0.0000 C   0  0  0  0  0  0  0  0  0  0  0  0
   10.7326    4.4457    0.0000 C   0  0  0  0  0  0  0  0  0  0  0  0
   10.4776    3.6611    0.0000 C   0  0  0  0  0  0  0  0  0  0  0  0
    9.6706    3.4896    0.0000 C   0  0  0  0  0  0  0  0  0  0  0  0
    9.4157    2.7050    0.0000 F   0  0  0  0  0  0  0  0  0  0  0  0
    6.2102    1.9354    0.0000 C   0  0  0  0  0  0  0  0  0  0  0  0
    6.2102    1.1104    0.0000 C   0  0  0  0  0  0  0  0  0  0  0  0
    5.4957    0.6979    0.0000 C   0  0  0  0  0  0  0  0  0  0  0  0
    4.7812    1.1104    0.0000 C   0  0  0  0  0  0  0  0  0  0  0  0
    4.7812    1.9354    0.0000 N   0  0  0  0  0  0  0  0  0  0  0  0
    5.4957    2.3479    0.0000 C   0  0  0  0  0  0  0  0  0  0  0  0
    4.0668    2.3479    0.0000 C   0  0  0  0  0  0  0  0  0  0  0  0
    4.0668    3.1729    0.0000 O   0  0  0  0  0  0  0  0  0  0  0  0
    3.3523    1.9354    0.0000 C   0  0  0  0  0  0  0  0  0  0  0  0
    3.3523    1.1104    0.0000 C   0  0  0  0  0  0  0  0  0  0  0  0
    2.6378    0.6979    0.0000 C   0  0  0  0  0  0  0  0  0  0  0  0
    1.9233    1.1104    0.0000 C   0  0  0  0  0  0  0  0  0  0  0  0
    1.1387    0.8555    0.0000 N   0  0  0  0  0  0  0  0  0  0  0  0
    0.6538    1.5229    0.0000 C   0  0  0  0  0  0  0  0  0  0  0  0
    1.1387    2.1904    0.0000 N   0  0  0  0  0  0  0  0  0  0  0  0
    0.8838    2.9750    0.0000 C   0  0  0  0  0  0  0  0  0  0  0  0
    0.2707    3.5270    0.0000 C   0  0  0  0  0  0  0  0  0  0  0  0
    1.0553    3.7820    0.0000 C   0  0  0  0  0  0  0  0  0  0  0  0
    1.9233    1.9354    0.0000 C   0  0  0  0  0  0  0  0  0  0  0  0
    2.6378    2.3479    0.0000 C   0  0  0  0  0  0  0  0  0  0  0  0
  1  2  1  0  0  0  0
  2  3  1  0  0  0  0
  3  4  2  0  0  0  0
  4  5  1  0  0  0  0
  5  6  1  0  0  0  0
  6  7  1  0  0  0  0
  7  8  1  0  0  0  0
  8  9  2  0  0  0  0
  9 10  1  0  0  0  0
 10 11  2  0  0  0  0
 11 12  1  0  0  0  0
 12 13  2  0  0  0  0
  8 13  1  0  0  0  0
 13 14  1  0  0  0  0
  4 15  1  0  0  0  0
 15 16  2  0  0  0  0
  2 16  1  0  0  0  0
 16 17  1  0  0  0  0
 17 18  1  0  0  0  0
 18 19  1  0  0  0  0
 19 20  1  0  0  0  0
 15 20  1  0  0  0  0
 19 21  1  0  0  0  0
 21 22  2  0  0  0  0
 21 23  1  0  0  0  0
 23 24  2  0  0  0  0
 24 25  1  0  0  0  0
 25 26  2  0  0  0  0
 26 27  1  0  0  0  0
 27 28  2  0  0  0  0
 28 29  1  0  0  0  0
 29 30  1  0  0  0  0
 30 31  1  0  0  0  0
 31 32  1  0  0  0  0
 30 32  1  0  0  0  0
 29 33  1  0  0  0  0
 26 33  1  0  0  0  0
 33 34  2  0  0  0  0
 23 34  1  0  0  0  0
M  END
> <ID>
CPD_907

$$$$
CPD_912
  Mrv1822 09091914012D          

 37 42  0  0  0  0            999 V2000
   -2.6631    3.9441    0.0000 C   0  0  0  0  0  0  0  0  0  0  0  0
   -2.5769    3.1236    0.0000 N   0  0  0  0  0  0  0  0  0  0  0  0
   -3.1900    2.5715    0.0000 N   0  0  0  0  0  0  0  0  0  0  0  0
   -2.8544    1.8179    0.0000 C   0  0  0  0  0  0  0  0  0  0  0  0
   -3.2669    1.1034    0.0000 C   0  0  0  0  0  0  0  0  0  0  0  0
   -4.0919    1.1034    0.0000 O   0  0  0  0  0  0  0  0  0  0  0  0
   -4.5044    0.3889    0.0000 C   0  0  0  0  0  0  0  0  0  0  0  0
   -5.3294    0.3889    0.0000 C   0  0  0  0  0  0  0  0  0  0  0  0
   -5.7419   -0.3255    0.0000 C   0  0  0  0  0  0  0  0  0  0  0  0
   -6.5669   -0.3255    0.0000 C   0  0  0  0  0  0  0  0  0  0  0  0
   -6.9794    0.3889    0.0000 C   0  0  0  0  0  0  0  0  0  0  0  0
   -6.5669    1.1034    0.0000 C   0  0  0  0  0  0  0  0  0  0  0  0
   -5.7419    1.1034    0.0000 C   0  0  0  0  0  0  0  0  0  0  0  0
   -5.3294    1.8179    0.0000 F   0  0  0  0  0  0  0  0  0  0  0  0
   -2.0339    1.9041    0.0000 C   0  0  0  0  0  0  0  0  0  0  0  0
   -1.8624    2.7111    0.0000 C   0  0  0  0  0  0  0  0  0  0  0  0
   -1.0778    2.9660    0.0000 C   0  0  0  0  0  0  0  0  0  0  0  0
   -0.4647    2.4140    0.0000 C   0  0  0  0  0  0  0  0  0  0  0  0
   -0.6362    1.6070    0.0000 N   0  0  0  0  0  0  0  0  0  0  0  0
   -1.4208    1.3521    0.0000 C   0  0  0  0  0  0  0  0  0  0  0  0
   -0.0231    1.0550    0.0000 C   0  0  0  0  0  0  0  0  0  0  0  0
   -0.1946    0.2480    0.0000 O   0  0  0  0  0  0  0  0  0  0  0  0
    0.7615    1.3099    0.0000 C   0  0  0  0  0  0  0  0  0  0  0  0
    1.4289    0.8250    0.0000 C   0  0  0  0  0  0  0  0  0  0  0  0
    2.0964    1.3099    0.0000 N   0  0  0  0  0  0  0  0  0  0  0  0
    1.8414    2.0945    0.0000 N   0  0  0  0  0  0  0  0  0  0  0  0
    1.0164    2.0945    0.0000 C   0  0  0  0  0  0  0  0  0  0  0  0
    1.4289    0.0000    0.0000 C   0  0  0  0  0  0  0  0  0  0  0  0
    2.1434   -0.4125    0.0000 C   0  0  0  0  0  0  0  0  0  0  0  0
    2.8579    0.0000    0.0000 C   0  0  0  0  0  0  0  0  0  0  0  0
    3.5724   -0.4125    0.0000 C   0  0  0  0  0  0  0  0  0  0  0  0
    3.5724   -1.2375    0.0000 C   0  0  0  0  0  0  0  0  0  0  0  0
    2.8579   -1.6500    0.0000 C   0  0  0  0  0  0  0  0  0  0  0  0
    2.1434   -1.2375    0.0000 C   0  0  0  0  0  0  0  0  0  0  0  0
    1.4289   -1.6500    0.0000 C   0  0  0  0  0  0  0  0  0  0  0  0
    0.7145   -1.2375    0.0000 C   0  0  0  0  0  0  0  0  0  0  0  0
    0.7145   -0.4125    0.0000 C   0  0  0  0  0  0  0  0  0  0  0  0
  1  2  1  0  0  0  0
  2  3  1  0  0  0  0
  3  4  2  0  0  0  0
  4  5  1  0  0  0  0
  5  6  1  0  0  0  0
  6  7  1  0  0  0  0
  7  8  1  0  0  0  0
  8  9  2  0  0  0  0
  9 10  1  0  0  0  0
 10 11  2  0  0  0  0
 11 12  1  0  0  0  0
 12 13  2  0  0  0  0
  8 13  1  0  0  0  0
 13 14  1  0  0  0  0
  4 15  1  0  0  0  0
 15 16  2  0  0  0  0
  2 16  1  0  0  0  0
 16 17  1  0  0  0  0
 17 18  1  0  0  0  0
 18 19  1  0  0  0  0
 19 20  1  0  0  0  0
 15 20  1  0  0  0  0
 19 21  1  0  0  0  0
 21 22  2  0  0  0  0
 21 23  1  0  0  0  0
 23 24  2  0  0  0  0
 24 25  1  0  0  0  0
 25 26  1  0  0  0  0
 26 27  2  0  0  0  0
 23 27  1  0  0  0  0
 24 28  1  0  0  0  0
 28 29  2  0  0  0  0
 29 30  1  0  0  0  0
 30 31  2  0  0  0  0
 31 32  1  0  0  0  0
 32 33  2  0  0  0  0
 33 34  1  0  0  0  0
 29 34  1  0  0  0  0
 34 35  2  0  0  0  0
 35 36  1  0  0  0  0
 36 37  2  0  0  0  0
 28 37  1  0  0  0  0
M  END
> <ID>
CPD_912

$$$$
CPD_917
  Mrv1822 09091914012D          

 28 31  0  0  0  0            999 V2000
    4.2135    4.8229    0.0000 C   0  0  0  0  0  0  0  0  0  0  0  0
    4.9279    4.4104    0.0000 C   0  0  0  0  0  0  0  0  0  0  0  0
    5.6424    4.8229    0.0000 C   0  0  0  0  0  0  0  0  0  0  0  0
    6.3569    4.4104    0.0000 C   0  0  0  0  0  0  0  0  0  0  0  0
    6.3569    3.5854    0.0000 C   0  0  0  0  0  0  0  0  0  0  0  0
    5.6424    3.1729    0.0000 N   0  0  0  0  0  0  0  0  0  0  0  0
    5.6424    2.3479    0.0000 C   0  0  0  0  0  0  0  0  0  0  0  0
    4.9279    1.9354    0.0000 C   0  0  0  0  0  0  0  0  0  0  0  0
    4.9279    1.1104    0.0000 C   0  0  0  0  0  0  0  0  0  0  0  0
    4.2135    0.6979    0.0000 C   0  0  0  0  0  0  0  0  0  0  0  0
    3.4990    1.1104    0.0000 N   0  0  0  0  0  0  0  0  0  0  0  0
    3.4990    1.9354    0.0000 C   0  0  0  0  0  0  0  0  0  0  0  0
    4.2135    2.3479    0.0000 C   0  0  0  0  0  0  0  0  0  0  0  0
    2.7845    0.6979    0.0000 C   0  0  0  0  0  0  0  0  0  0  0  0
    2.7845   -0.1271    0.0000 O   0  0  0  0  0  0  0  0  0  0  0  0
    2.0701    1.1104    0.0000 C   0  0  0  0  0  0  0  0  0  0  0  0
    1.3556    0.6979    0.0000 C   0  0  0  0  0  0  0  0  0  0  0  0
    0.6411    1.1104    0.0000 C   0  0  0  0  0  0  0  0  0  0  0  0
   -0.1435    0.8555    0.0000 N   0  0  0  0  0  0  0  0  0  0  0  0
   -0.6284    1.5229    0.0000 N   0  0  0  0  0  0  0  0  0  0  0  0
   -0.1435    2.1904    0.0000 C   0  0  0  0  0  0  0  0  0  0  0  0
    0.6411    1.9354    0.0000 C   0  0  0  0  0  0  0  0  0  0  0  0
    1.3556    2.3479    0.0000 C   0  0  0  0  0  0  0  0  0  0  0  0
    2.0701    1.9354    0.0000 C   0  0  0  0  0  0  0  0  0  0  0  0
   -1.4534    1.5229    0.0000 C   0  0  0  0  0  0  0  0  0  0  0  0
   -1.8659    0.8085    0.0000 C   0  0  0  0  0  0  0  0  0  0  0  0
   -1.8659    2.2374    0.0000 O   0  0  0  0  0  0  0  0  0  0  0  0
    4.9279    3.5854    0.0000 C   0  0  0  0  0  0  0  0  0  0  0  0
  1  2  1  0  0  0  0
  2  3  1  0  0  0  0
  3  4  1  0  0  0  0
  4  5  1  0  0  0  0
  5  6  1  0  0  0  0
  6  7  1  0  0  0  0
  7  8  1  0  0  0  0
  8  9  1  0  0  0  0
  9 10  1  0  0  0  0
 10 11  1  0  0  0  0
 11 12  1  0  0  0  0
 12 13  1  0  0  0  0
  8 13  1  0  0  0  0
 11 14  1  0  0  0  0
 14 15  2  0  0  0  0
 14 16  1  0  0  0  0
 16 17  2  0  0  0  0
 17 18  1  0  0  0  0
 18 19  2  0  0  0  0
 19 20  1  0  0  0  0
 20 21  1  0  0  0  0
 21 22  2  0  0  0  0
 18 22  1  0  0  0  0
 22 23  1  0  0  0  0
 23 24  2  0  0  0  0
 16 24  1  0  0  0  0
 20 25  1  0  0  0  0
 25 26  1  0  0  0  0
 25 27  2  0  0  0  0
  6 28  1  0  0  0  0
  2 28  1  0  0  0  0
M  END
> <ID>
CPD_917

$$$$
CPD_922
  Mrv1822 09091914012D          

 29 32  0  0  0  0            999 V2000
   -0.7145   -1.2375    0.0000 C   0  0  0  0  0  0  0  0  0  0  0  0
    0.0000   -1.6500    0.0000 N   0  0  0  0  0  0  0  0  0  0  0  0
    0.7145   -1.2375    0.0000 C   0  0  0  0  0  0  0  0  0  0  0  0
    0.7145   -0.4125    0.0000 C   0  0  0  0  0  0  0  0  0  0  0  0
    0.0000    0.0000    0.0000 C   0  0  0  0  0  0  0  0  0  0  0  0
    0.0000    0.8250    0.0000 C   0  0  0  0  0  0  0  0  0  0  0  0
    0.7145    1.2375    0.0000 C   0  0  0  0  0  0  0  0  0  0  0  0
    1.4289    0.8250    0.0000 C   0  0  0  0  0  0  0  0  0  0  0  0
    1.4289   -0.0000    0.0000 C   0  0  0  0  0  0  0  0  0  0  0  0
    0.0000   -2.4750    0.0000 C   0  0  0  0  0  0  0  0  0  0  0  0
    0.6674   -2.9599    0.0000 C   0  0  0  0  0  0  0  0  0  0  0  0
    0.4125   -3.7445    0.0000 C   0  0  0  0  0  0  0  0  0  0  0  0
   -0.4125   -3.7445    0.0000 N   0  0  0  0  0  0  0  0  0  0  0  0
   -0.6674   -2.9599    0.0000 C   0  0  0  0  0  0  0  0  0  0  0  0
   -0.8974   -4.4120    0.0000 C   0  0  0  0  0  0  0  0  0  0  0  0
   -1.7179   -4.3257    0.0000 O   0  0  0  0  0  0  0  0  0  0  0  0
   -0.5619   -5.1657    0.0000 C   0  0  0  0  0  0  0  0  0  0  0  0
    0.2451   -5.3372    0.0000 N   0  0  0  0  0  0  0  0  0  0  0  0
    0.3313   -6.1577    0.0000 O   0  0  0  0  0  0  0  0  0  0  0  0
   -0.4223   -6.4932    0.0000 C   0  0  0  0  0  0  0  0  0  0  0  0
   -0.5939   -7.3002    0.0000 C   0  0  0  0  0  0  0  0  0  0  0  0
   -0.9744   -5.8801    0.0000 C   0  0  0  0  0  0  0  0  0  0  0  0
   -1.7948   -5.9664    0.0000 C   0  0  0  0  0  0  0  0  0  0  0  0
   -2.1304   -6.7200    0.0000 N   0  0  0  0  0  0  0  0  0  0  0  0
   -2.9374   -6.8916    0.0000 C   0  0  0  0  0  0  0  0  0  0  0  0
   -3.0236   -7.7120    0.0000 C   0  0  0  0  0  0  0  0  0  0  0  0
   -3.7381   -8.1245    0.0000 Cl  0  0  0  0  0  0  0  0  0  0  0  0
   -2.2699   -8.0476    0.0000 C   0  0  0  0  0  0  0  0  0  0  0  0
   -1.7179   -7.4345    0.0000 N   0  0  0  0  0  0  0  0  0  0  0  0
  1  2  1  0  0  0  0
  2  3  1  0  0  0  0
  3  4  1  0  0  0  0
  4  5  2  0  0  0  0
  5  6  1  0  0  0  0
  6  7  2  0  0  0  0
  7  8  1  0  0  0  0
  8  9  2  0  0  0  0
  4  9  1  0  0  0  0
  2 10  1  0  0  0  0
 10 11  1  0  0  0  0
 11 12  1  0  0  0  0
 12 13  1  0  0  0  0
 13 14  1  0  0  0  0
 10 14  1  0  0  0  0
 13 15  1  0  0  0  0
 15 16  2  0  0  0  0
 15 17  1  0  0  0  0
 17 18  2  0  0  0  0
 18 19  1  0  0  0  0
 19 20  1  0  0  0  0
 20 21  1  0  0  0  0
 20 22  2  0  0  0  0
 17 22  1  0  0  0  0
 22 23  1  0  0  0  0
 23 24  1  0  0  0  0
 24 25  1  0  0  0  0
 25 26  2  0  0  0  0
 26 27  1  0  0  0  0
 26 28  1  0  0  0  0
 28 29  2  0  0  0  0
 24 29  1  0  0  0  0
M  END
> <ID>
CPD_922

$$$$
CPD_927
  Mrv1822 09091914012D          

 26 28  0  0  0  0            999 V2000
    1.3222   -0.0616    0.0000 C   0  0  0  0  0  0  0  0  0  0  0  0
    2.0367   -0.4741    0.0000 N   0  0  0  0  0  0  0  0  0  0  0  0
    2.7512   -0.0616    0.0000 C   0  0  0  0  0  0  0  0  0  0  0  0
    2.7512    0.7634    0.0000 C   0  0  0  0  0  0  0  0  0  0  0  0
    2.0367    1.1759    0.0000 C   0  0  0  0  0  0  0  0  0  0  0  0
    2.0367    2.0009    0.0000 C   0  0  0  0  0  0  0  0  0  0  0  0
    2.7512    2.4134    0.0000 C   0  0  0  0  0  0  0  0  0  0  0  0
    3.4656    2.0009    0.0000 C   0  0  0  0  0  0  0  0  0  0  0  0
    3.4656    1.1759    0.0000 C   0  0  0  0  0  0  0  0  0  0  0  0
    2.0367   -1.2991    0.0000 C   0  0  0  0  0  0  0  0  0  0  0  0
    2.7041   -1.7840    0.0000 C   0  0  0  0  0  0  0  0  0  0  0  0
    2.4492   -2.5687    0.0000 C   0  0  0  0  0  0  0  0  0  0  0  0
    1.6242   -2.5687    0.0000 N   0  0  0  0  0  0  0  0  0  0  0  0
    1.3693   -1.7840    0.0000 C   0  0  0  0  0  0  0  0  0  0  0  0
    1.1393   -3.2361    0.0000 C   0  0  0  0  0  0  0  0  0  0  0  0
    1.4748   -3.9898    0.0000 O   0  0  0  0  0  0  0  0  0  0  0  0
    0.3188   -3.1499    0.0000 C   0  0  0  0  0  0  0  0  0  0  0  0
   -0.1661   -3.8173    0.0000 C   0  0  0  0  0  0  0  0  0  0  0  0
    0.1694   -4.5710    0.0000 C   0  0  0  0  0  0  0  0  0  0  0  0
   -0.9866   -3.7311    0.0000 N   0  0  0  0  0  0  0  0  0  0  0  0
   -1.3222   -2.9774    0.0000 C   0  0  0  0  0  0  0  0  0  0  0  0
   -2.1426   -2.8911    0.0000 O   0  0  0  0  0  0  0  0  0  0  0  0
   -0.8372   -2.3099    0.0000 C   0  0  0  0  0  0  0  0  0  0  0  0
   -0.0168   -2.3962    0.0000 C   0  0  0  0  0  0  0  0  0  0  0  0
   -1.1728   -1.5563    0.0000 C   0  0  0  0  0  0  0  0  0  0  0  0
   -1.5083   -0.8026    0.0000 N   0  0  0  0  0  0  0  0  0  0  0  0
  1  2  1  0  0  0  0
  2  3  1  0  0  0  0
  3  4  1  0  0  0  0
  4  5  2  0  0  0  0
  5  6  1  0  0  0  0
  6  7  2  0  0  0  0
  7  8  1  0  0  0  0
  8  9  2  0  0  0  0
  4  9  1  0  0  0  0
  2 10  1  0  0  0  0
 10 11  1  0  0  0  0
 11 12  1  0  0  0  0
 12 13  1  0  0  0  0
 13 14  1  0  0  0  0
 10 14  1  0  0  0  0
 13 15  1  0  0  0  0
 15 16  2  0  0  0  0
 15 17  1  0  0  0  0
 17 18  2  0  0  0  0
 18 19  1  0  0  0  0
 18 20  1  0  0  0  0
 20 21  2  0  0  0  0
 21 22  1  0  0  0  0
 21 23  1  0  0  0  0
 23 24  2  0  0  0  0
 17 24  1  0  0  0  0
 23 25  1  0  0  0  0
 25 26  3  0  0  0  0
M  END
> <ID>
CPD_927

$$$$
CPD_932
  Mrv1822 09091914012D          

 33 36  0  0  0  0            999 V2000
   -5.6091    3.1152    0.0000 C   0  0  0  0  0  0  0  0  0  0  0  0
   -4.8946    3.5277    0.0000 O   0  0  0  0  0  0  0  0  0  0  0  0
   -4.1801    3.1152    0.0000 C   0  0  0  0  0  0  0  0  0  0  0  0
   -4.1801    2.2902    0.0000 O   0  0  0  0  0  0  0  0  0  0  0  0
   -3.4656    3.5277    0.0000 N   0  0  0  0  0  0  0  0  0  0  0  0
   -2.7512    3.1152    0.0000 C   0  0  0  0  0  0  0  0  0  0  0  0
   -2.0367    3.5277    0.0000 C   0  0  0  0  0  0  0  0  0  0  0  0
   -1.3222    3.1152    0.0000 C   0  0  0  0  0  0  0  0  0  0  0  0
   -1.3222    2.2902    0.0000 C   0  0  0  0  0  0  0  0  0  0  0  0
   -2.0367    1.8777    0.0000 C   0  0  0  0  0  0  0  0  0  0  0  0
   -2.7512    2.2902    0.0000 C   0  0  0  0  0  0  0  0  0  0  0  0
   -0.6078    1.8777    0.0000 C   0  0  0  0  0  0  0  0  0  0  0  0
    0.1067    2.2902    0.0000 C   0  0  0  0  0  0  0  0  0  0  0  0
    0.8212    1.8777    0.0000 C   0  0  0  0  0  0  0  0  0  0  0  0
    0.8212    1.0527    0.0000 C   0  0  0  0  0  0  0  0  0  0  0  0
    0.1067    0.6402    0.0000 C   0  0  0  0  0  0  0  0  0  0  0  0
   -0.6078    1.0527    0.0000 C   0  0  0  0  0  0  0  0  0  0  0  0
   -1.3222    0.6402    0.0000 C   0  0  0  0  0  0  0  0  0  0  0  0
   -2.0367    1.0527    0.0000 O   0  0  0  0  0  0  0  0  0  0  0  0
   -1.3222   -0.1848    0.0000 N   0  0  0  0  0  0  0  0  0  0  0  0
   -0.6548   -0.6697    0.0000 C   0  0  0  0  0  0  0  0  0  0  0  0
   -0.9097   -1.4544    0.0000 C   0  0  0  0  0  0  0  0  0  0  0  0
   -1.7347   -1.4544    0.0000 C   0  0  0  0  0  0  0  0  0  0  0  0
   -1.9897   -0.6697    0.0000 C   0  0  0  0  0  0  0  0  0  0  0  0
   -2.2197   -2.1218    0.0000 N   0  0  0  0  0  0  0  0  0  0  0  0
   -3.0401   -2.0356    0.0000 C   0  0  0  0  0  0  0  0  0  0  0  0
   -1.8841   -2.8755    0.0000 C   0  0  0  0  0  0  0  0  0  0  0  0
   -1.0636   -2.9617    0.0000 C   0  0  0  0  0  0  0  0  0  0  0  0
   -0.5787   -2.2943    0.0000 C   0  0  0  0  0  0  0  0  0  0  0  0
    0.2418   -2.3805    0.0000 C   0  0  0  0  0  0  0  0  0  0  0  0
    0.5773   -3.1342    0.0000 C   0  0  0  0  0  0  0  0  0  0  0  0
    0.0924   -3.8016    0.0000 C   0  0  0  0  0  0  0  0  0  0  0  0
   -0.7281   -3.7154    0.0000 C   0  0  0  0  0  0  0  0  0  0  0  0
  1  2  1  0  0  0  0
  2  3  1  0  0  0  0
  3  4  2  0  0  0  0
  3  5  1  0  0  0  0
  5  6  1  0  0  0  0
  6  7  2  0  0  0  0
  7  8  1  0  0  0  0
  8  9  2  0  0  0  0
  9 10  1  0  0  0  0
 10 11  2  0  0  0  0
  6 11  1  0  0  0  0
  9 12  1  0  0  0  0
 12 13  2  0  0  0  0
 13 14  1  0  0  0  0
 14 15  2  0  0  0  0
 15 16  1  0  0  0  0
 16 17  2  0  0  0  0
 12 17  1  0  0  0  0
 17 18  1  0  0  0  0
 18 19  2  0  0  0  0
 18 20  1  0  0  0  0
 20 21  1  0  0  0  0
 21 22  1  0  0  0  0
 22 23  1  0  0  0  0
 23 24  1  0  0  0  0
 20 24  1  0  0  0  0
 23 25  1  0  0  0  0
 25 26  1  0  0  0  0
 25 27  1  0  0  0  0
 27 28  1  0  0  0  0
 28 29  2  0  0  0  0
 29 30  1  0  0  0  0
 30 31  2  0  0  0  0
 31 32  1  0  0  0  0
 32 33  2  0  0  0  0
 28 33  1  0  0  0  0
M  END
> <ID>
CPD_932

$$$$
CPD_937
  Mrv1822 09091914012D          

 40 44  0  0  0  0            999 V2000
    4.9081   -2.5678    0.0000 C   0  0  0  0  0  0  0  0  0  0  0  0
    4.1936   -2.9803    0.0000 O   0  0  0  0  0  0  0  0  0  0  0  0
    4.1936   -3.8053    0.0000 C   0  0  0  0  0  0  0  0  0  0  0  0
    3.4792   -4.2178    0.0000 O   0  0  0  0  0  0  0  0  0  0  0  0
    4.9081   -4.2178    0.0000 C   0  0  0  0  0  0  0  0  0  0  0  0
    4.9081   -5.0428    0.0000 C   0  0  0  0  0  0  0  0  0  0  0  0
    4.1936   -5.4553    0.0000 N   0  0  0  0  0  0  0  0  0  0  0  0
    4.1936   -6.2803    0.0000 C   0  0  0  0  0  0  0  0  0  0  0  0
    4.8611   -6.7652    0.0000 C   0  0  0  0  0  0  0  0  0  0  0  0
    4.6061   -7.5498    0.0000 C   0  0  0  0  0  0  0  0  0  0  0  0
    3.7811   -7.5498    0.0000 C   0  0  0  0  0  0  0  0  0  0  0  0
    3.2962   -8.2173    0.0000 O   0  0  0  0  0  0  0  0  0  0  0  0
    3.5262   -6.7652    0.0000 C   0  0  0  0  0  0  0  0  0  0  0  0
    2.7416   -6.5103    0.0000 N   0  0  0  0  0  0  0  0  0  0  0  0
    2.5700   -5.7033    0.0000 C   0  0  0  0  0  0  0  0  0  0  0  0
    1.7854   -5.4483    0.0000 C   0  0  0  0  0  0  0  0  0  0  0  0
    1.6139   -4.6414    0.0000 C   0  0  0  0  0  0  0  0  0  0  0  0
    2.2270   -4.0893    0.0000 C   0  0  0  0  0  0  0  0  0  0  0  0
    3.0116   -4.3443    0.0000 C   0  0  0  0  0  0  0  0  0  0  0  0
    3.1831   -5.1513    0.0000 C   0  0  0  0  0  0  0  0  0  0  0  0
    1.1723   -6.0004    0.0000 C   0  0  0  0  0  0  0  0  0  0  0  0
    1.3439   -6.8073    0.0000 O   0  0  0  0  0  0  0  0  0  0  0  0
    0.3877   -5.7454    0.0000 N   0  0  0  0  0  0  0  0  0  0  0  0
   -0.2797   -6.2304    0.0000 C   0  0  0  0  0  0  0  0  0  0  0  0
   -0.9472   -5.7454    0.0000 C   0  0  0  0  0  0  0  0  0  0  0  0
   -0.6922   -4.9608    0.0000 C   0  0  0  0  0  0  0  0  0  0  0  0
    0.1328   -4.9608    0.0000 C   0  0  0  0  0  0  0  0  0  0  0  0
   -1.1772   -4.2934    0.0000 N   0  0  0  0  0  0  0  0  0  0  0  0
   -0.8416   -3.5397    0.0000 C   0  0  0  0  0  0  0  0  0  0  0  0
   -1.9976   -4.3796    0.0000 C   0  0  0  0  0  0  0  0  0  0  0  0
   -2.4826   -3.7122    0.0000 C   0  0  0  0  0  0  0  0  0  0  0  0
   -3.3030   -3.7984    0.0000 C   0  0  0  0  0  0  0  0  0  0  0  0
   -3.7880   -3.1310    0.0000 C   0  0  0  0  0  0  0  0  0  0  0  0
   -3.4524   -2.3773    0.0000 C   0  0  0  0  0  0  0  0  0  0  0  0
   -2.6319   -2.2911    0.0000 C   0  0  0  0  0  0  0  0  0  0  0  0
   -2.1470   -2.9585    0.0000 C   0  0  0  0  0  0  0  0  0  0  0  0
    5.6226   -5.4553    0.0000 C   0  0  0  0  0  0  0  0  0  0  0  0
    6.3370   -5.0428    0.0000 C   0  0  0  0  0  0  0  0  0  0  0  0
    6.3370   -4.2178    0.0000 C   0  0  0  0  0  0  0  0  0  0  0  0
    5.6226   -3.8053    0.0000 C   0  0  0  0  0  0  0  0  0  0  0  0
  1  2  1  0  0  0  0
  2  3  1  0  0  0  0
  3  4  2  0  0  0  0
  3  5  1  0  0  0  0
  5  6  2  0  0  0  0
  6  7  1  0  0  0  0
  7  8  1  0  0  0  0
  8  9  1  0  0  0  0
  9 10  2  0  0  0  0
 10 11  1  0  0  0  0
 11 12  2  0  0  0  0
 11 13  1  0  0  0  0
  8 13  1  0  0  0  0
 13 14  1  0  0  0  0
 14 15  1  0  0  0  0
 15 16  2  0  0  0  0
 16 17  1  0  0  0  0
 17 18  2  0  0  0  0
 18 19  1  0  0  0  0
 19 20  2  0  0  0  0
 15 20  1  0  0  0  0
 16 21  1  0  0  0  0
 21 22  2  0  0  0  0
 21 23  1  0  0  0  0
 23 24  1  0  0  0  0
 24 25  1  0  0  0  0
 25 26  1  0  0  0  0
 26 27  1  0  0  0  0
 23 27  1  0  0  0  0
 26 28  1  0  0  0  0
 28 29  1  0  0  0  0
 28 30  1  0  0  0  0
 30 31  1  0  0  0  0
 31 32  2  0  0  0  0
 32 33  1  0  0  0  0
 33 34  2  0  0  0  0
 34 35  1  0  0  0  0
 35 36  2  0  0  0  0
 31 36  1  0  0  0  0
  6 37  1  0  0  0  0
 37 38  2  0  0  0  0
 38 39  1  0  0  0  0
 39 40  2  0  0  0  0
  5 40  1  0  0  0  0
M  END
> <ID>
CPD_937

$$$$
CPD_942
  Mrv1822 09091914012D          

 29 32  0  0  0  0            999 V2000
   -0.3984   -2.1500    0.0000 C   0  0  0  0  0  0  0  0  0  0  0  0
   -0.1435   -1.3654    0.0000 N   0  0  0  0  0  0  0  0  0  0  0  0
    0.6411   -1.1104    0.0000 C   0  0  0  0  0  0  0  0  0  0  0  0
    0.6411   -0.2854    0.0000 C   0  0  0  0  0  0  0  0  0  0  0  0
    1.3556    0.1271    0.0000 N   0  0  0  0  0  0  0  0  0  0  0  0
    2.0701   -0.2854    0.0000 C   0  0  0  0  0  0  0  0  0  0  0  0
    2.0701   -1.1104    0.0000 C   0  0  0  0  0  0  0  0  0  0  0  0
    1.3556   -1.5229    0.0000 C   0  0  0  0  0  0  0  0  0  0  0  0
    2.7845   -1.5229    0.0000 C   0  0  0  0  0  0  0  0  0  0  0  0
    3.4990   -1.9354    0.0000 F   0  0  0  0  0  0  0  0  0  0  0  0
    3.1970   -0.8085    0.0000 F   0  0  0  0  0  0  0  0  0  0  0  0
    2.3720   -2.2374    0.0000 F   0  0  0  0  0  0  0  0  0  0  0  0
   -0.1435   -0.0305    0.0000 C   0  0  0  0  0  0  0  0  0  0  0  0
   -0.3984    0.7541    0.0000 N   0  0  0  0  0  0  0  0  0  0  0  0
   -0.6284   -0.6979    0.0000 C   0  0  0  0  0  0  0  0  0  0  0  0
   -1.4534   -0.6979    0.0000 C   0  0  0  0  0  0  0  0  0  0  0  0
   -1.8659   -1.4124    0.0000 O   0  0  0  0  0  0  0  0  0  0  0  0
   -1.8659    0.0165    0.0000 N   0  0  0  0  0  0  0  0  0  0  0  0
   -2.6909    0.0165    0.0000 C   0  0  0  0  0  0  0  0  0  0  0  0
   -3.1034    0.7310    0.0000 C   0  0  0  0  0  0  0  0  0  0  0  0
   -3.2467    1.5435    0.0000 C   0  0  0  0  0  0  0  0  0  0  0  0
   -2.4714    1.2613    0.0000 C   0  0  0  0  0  0  0  0  0  0  0  0
   -3.8787    0.4488    0.0000 C   0  0  0  0  0  0  0  0  0  0  0  0
   -4.0219   -0.3636    0.0000 C   0  0  0  0  0  0  0  0  0  0  0  0
   -4.7972   -0.6458    0.0000 C   0  0  0  0  0  0  0  0  0  0  0  0
   -4.9404   -1.4583    0.0000 Br  0  0  0  0  0  0  0  0  0  0  0  0
   -5.4292   -0.1155    0.0000 C   0  0  0  0  0  0  0  0  0  0  0  0
   -5.2859    0.6970    0.0000 C   0  0  0  0  0  0  0  0  0  0  0  0
   -4.5107    0.9791    0.0000 C   0  0  0  0  0  0  0  0  0  0  0  0
  1  2  1  0  0  0  0
  2  3  1  0  0  0  0
  3  4  2  0  0  0  0
  4  5  1  0  0  0  0
  5  6  2  0  0  0  0
  6  7  1  0  0  0  0
  7  8  2  0  0  0  0
  3  8  1  0  0  0  0
  7  9  1  0  0  0  0
  9 10  1  0  0  0  0
  9 11  1  0  0  0  0
  9 12  1  0  0  0  0
  4 13  1  0  0  0  0
 13 14  1  0  0  0  0
 13 15  2  0  0  0  0
  2 15  1  0  0  0  0
 15 16  1  0  0  0  0
 16 17  2  0  0  0  0
 16 18  1  0  0  0  0
 18 19  1  0  0  0  0
 19 20  1  0  0  0  0
 20 21  1  0  0  0  0
 21 22  1  0  0  0  0
 20 22  1  0  0  0  0
 20 23  1  0  0  0  0
 23 24  2  0  0  0  0
 24 25  1  0  0  0  0
 25 26  1  0  0  0  0
 25 27  2  0  0  0  0
 27 28  1  0  0  0  0
 28 29  2  0  0  0  0
 23 29  1  0  0  0  0
M  END
> <ID>
CPD_942

$$$$
CPD_947
  Mrv1822 09091914012D          

 33 36  0  0  0  0            999 V2000
    2.9972   -2.4377    0.0000 C   0  0  0  0  0  0  0  0  0  0  0  0
    3.7725   -2.7199    0.0000 C   0  0  0  0  0  0  0  0  0  0  0  0
    3.9158   -3.5323    0.0000 C   0  0  0  0  0  0  0  0  0  0  0  0
    4.6910   -3.8145    0.0000 C   0  0  0  0  0  0  0  0  0  0  0  0
    4.8343   -4.6270    0.0000 N   0  0  0  0  0  0  0  0  0  0  0  0
    4.2023   -5.1573    0.0000 C   0  0  0  0  0  0  0  0  0  0  0  0
    3.4270   -4.8751    0.0000 C   0  0  0  0  0  0  0  0  0  0  0  0
    2.7950   -5.4054    0.0000 O   0  0  0  0  0  0  0  0  0  0  0  0
    3.2838   -4.0626    0.0000 N   0  0  0  0  0  0  0  0  0  0  0  0
    2.5085   -3.7805    0.0000 C   0  0  0  0  0  0  0  0  0  0  0  0
    1.8765   -4.3108    0.0000 C   0  0  0  0  0  0  0  0  0  0  0  0
    1.4640   -5.0252    0.0000 C   0  0  0  0  0  0  0  0  0  0  0  0
    2.2890   -5.0252    0.0000 C   0  0  0  0  0  0  0  0  0  0  0  0
    1.2445   -3.7805    0.0000 C   0  0  0  0  0  0  0  0  0  0  0  0
    1.3878   -2.9680    0.0000 C   0  0  0  0  0  0  0  0  0  0  0  0
    0.7558   -2.4377    0.0000 C   0  0  0  0  0  0  0  0  0  0  0  0
    0.8991   -1.6252    0.0000 Br  0  0  0  0  0  0  0  0  0  0  0  0
   -0.0194   -2.7199    0.0000 C   0  0  0  0  0  0  0  0  0  0  0  0
   -0.1627   -3.5323    0.0000 C   0  0  0  0  0  0  0  0  0  0  0  0
    0.4693   -4.0626    0.0000 C   0  0  0  0  0  0  0  0  0  0  0  0
    5.6095   -4.9091    0.0000 S   0  0  0  0  0  0  0  0  0  0  0  0
    5.3273   -5.6844    0.0000 O   0  0  0  0  0  0  0  0  0  0  0  0
    5.8917   -4.1339    0.0000 O   0  0  0  0  0  0  0  0  0  0  0  0
    6.3847   -5.1913    0.0000 C   0  0  0  0  0  0  0  0  0  0  0  0
    7.0167   -4.6610    0.0000 C   0  0  0  0  0  0  0  0  0  0  0  0
    7.7920   -4.9432    0.0000 C   0  0  0  0  0  0  0  0  0  0  0  0
    7.9352   -5.7556    0.0000 C   0  0  0  0  0  0  0  0  0  0  0  0
    7.3033   -6.2859    0.0000 C   0  0  0  0  0  0  0  0  0  0  0  0
    6.5280   -6.0038    0.0000 C   0  0  0  0  0  0  0  0  0  0  0  0
    5.3230   -3.2842    0.0000 C   0  0  0  0  0  0  0  0  0  0  0  0
    6.0982   -3.5664    0.0000 C   0  0  0  0  0  0  0  0  0  0  0  0
    5.1797   -2.4717    0.0000 C   0  0  0  0  0  0  0  0  0  0  0  0
    4.4045   -2.1896    0.0000 C   0  0  0  0  0  0  0  0  0  0  0  0
  1  2  1  0  0  0  0
  2  3  2  0  0  0  0
  3  4  1  0  0  0  0
  4  5  1  0  0  0  0
  5  6  1  0  0  0  0
  6  7  1  0  0  0  0
  7  8  2  0  0  0  0
  7  9  1  0  0  0  0
  9 10  1  0  0  0  0
 10 11  1  0  0  0  0
 11 12  1  0  0  0  0
 12 13  1  0  0  0  0
 11 13  1  0  0  0  0
 11 14  1  0  0  0  0
 14 15  2  0  0  0  0
 15 16  1  0  0  0  0
 16 17  1  0  0  0  0
 16 18  2  0  0  0  0
 18 19  1  0  0  0  0
 19 20  2  0  0  0  0
 14 20  1  0  0  0  0
  5 21  1  0  0  0  0
 21 22  2  0  0  0  0
 21 23  2  0  0  0  0
 21 24  1  0  0  0  0
 24 25  2  0  0  0  0
 25 26  1  0  0  0  0
 26 27  2  0  0  0  0
 27 28  1  0  0  0  0
 28 29  2  0  0  0  0
 24 29  1  0  0  0  0
  4 30  2  0  0  0  0
 30 31  1  0  0  0  0
 30 32  1  0  0  0  0
 32 33  2  0  0  0  0
  2 33  1  0  0  0  0
M  END
> <ID>
CPD_947

$$$$
CPD_952
  Mrv1822 09091914012D          

 25 26  0  0  0  0            999 V2000
   -4.2868   -5.7750    0.0000 O   0  0  0  0  0  0  0  0  0  0  0  0
   -3.5724   -6.1875    0.0000 C   0  0  0  0  0  0  0  0  0  0  0  0
   -2.8579   -5.7750    0.0000 C   0  0  0  0  0  0  0  0  0  0  0  0
   -2.1434   -6.1875    0.0000 N   0  0  0  0  0  0  0  0  0  0  0  0
   -1.4289   -5.7750    0.0000 C   0  0  0  0  0  0  0  0  0  0  0  0
   -1.4289   -4.9500    0.0000 O   0  0  0  0  0  0  0  0  0  0  0  0
   -0.7145   -6.1875    0.0000 C   0  0  0  0  0  0  0  0  0  0  0  0
   -0.0000   -5.7750    0.0000 N   0  0  0  0  0  0  0  0  0  0  0  0
    0.7145   -6.1875    0.0000 C   0  0  0  0  0  0  0  0  0  0  0  0
    0.7145   -7.0125    0.0000 O   0  0  0  0  0  0  0  0  0  0  0  0
    1.4289   -5.7750    0.0000 C   0  0  0  0  0  0  0  0  0  0  0  0
    1.4289   -4.9500    0.0000 C   0  0  0  0  0  0  0  0  0  0  0  0
    2.1434   -4.5375    0.0000 C   0  0  0  0  0  0  0  0  0  0  0  0
    2.8579   -4.9500    0.0000 C   0  0  0  0  0  0  0  0  0  0  0  0
    2.8579   -5.7750    0.0000 C   0  0  0  0  0  0  0  0  0  0  0  0
    2.1434   -6.1875    0.0000 C   0  0  0  0  0  0  0  0  0  0  0  0
    2.1434   -7.0125    0.0000 O   0  0  0  0  0  0  0  0  0  0  0  0
    2.8579   -7.4250    0.0000 C   0  0  0  0  0  0  0  0  0  0  0  0
    3.5724   -7.0125    0.0000 C   0  0  0  0  0  0  0  0  0  0  0  0
    3.5724   -6.1875    0.0000 C   0  0  0  0  0  0  0  0  0  0  0  0
    4.2868   -5.7750    0.0000 C   0  0  0  0  0  0  0  0  0  0  0  0
    5.0013   -6.1875    0.0000 C   0  0  0  0  0  0  0  0  0  0  0  0
    5.7158   -5.7750    0.0000 Br  0  0  0  0  0  0  0  0  0  0  0  0
    5.0013   -7.0125    0.0000 C   0  0  0  0  0  0  0  0  0  0  0  0
    4.2868   -7.4250    0.0000 C   0  0  0  0  0  0  0  0  0  0  0  0
  1  2  1  0  0  0  0
  2  3  1  0  0  0  0
  3  4  1  0  0  0  0
  4  5  1  0  0  0  0
  5  6  2  0  0  0  0
  5  7  1  0  0  0  0
  7  8  1  0  0  0  0
  8  9  1  0  0  0  0
  9 10  2  0  0  0  0
  9 11  1  0  0  0  0
 11 12  2  0  0  0  0
 12 13  1  0  0  0  0
 13 14  2  0  0  0  0
 14 15  1  0  0  0  0
 15 16  2  0  0  0  0
 11 16  1  0  0  0  0
 16 17  1  0  0  0  0
 17 18  1  0  0  0  0
 18 19  1  0  0  0  0
 19 20  2  0  0  0  0
 20 21  1  0  0  0  0
 21 22  2  0  0  0  0
 22 23  1  0  0  0  0
 22 24  1  0  0  0  0
 24 25  2  0  0  0  0
 19 25  1  0  0  0  0
M  END
> <ID>
CPD_952

$$$$
CPD_957
  Mrv1822 09091914012D          

 26 28  0  0  1  0            999 V2000
   -1.4289   -2.4750    0.0000 O   0  0  0  0  0  0  0  0  0  0  0  0
   -0.7145   -2.8875    0.0000 C   0  0  0  0  0  0  0  0  0  0  0  0
    0.0000   -2.4750    0.0000 O   0  0  0  0  0  0  0  0  0  0  0  0
   -0.7145   -3.7125    0.0000 C   0  0  2  0  0  0  0  0  0  0  0  0
   -1.3819   -4.1974    0.0000 C   0  0  0  0  0  0  0  0  0  0  0  0
   -1.1270   -4.9820    0.0000 C   0  0  2  0  0  0  0  0  0  0  0  0
   -1.6119   -5.6495    0.0000 F   0  0  0  0  0  0  0  0  0  0  0  0
   -0.3020   -4.9820    0.0000 C   0  0  0  0  0  0  0  0  0  0  0  0
   -0.0470   -4.1974    0.0000 N   0  0  0  0  0  0  0  0  0  0  0  0
    0.7376   -3.9425    0.0000 C   0  0  0  0  0  0  0  0  0  0  0  0
    0.9091   -3.1355    0.0000 O   0  0  0  0  0  0  0  0  0  0  0  0
    1.3507   -4.4945    0.0000 C   0  0  0  0  0  0  0  0  0  0  0  0
    2.1353   -4.2396    0.0000 C   0  0  0  0  0  0  0  0  0  0  0  0
    2.7484   -4.7916    0.0000 C   0  0  0  0  0  0  0  0  0  0  0  0
    2.5769   -5.5986    0.0000 C   0  0  0  0  0  0  0  0  0  0  0  0
    1.7923   -5.8535    0.0000 C   0  0  0  0  0  0  0  0  0  0  0  0
    1.6207   -6.6605    0.0000 F   0  0  0  0  0  0  0  0  0  0  0  0
    1.1792   -5.3015    0.0000 C   0  0  0  0  0  0  0  0  0  0  0  0
    3.5330   -4.5367    0.0000 C   0  0  0  0  0  0  0  0  0  0  0  0
    3.7045   -3.7297    0.0000 C   0  0  0  0  0  0  0  0  0  0  0  0
    4.4892   -3.4748    0.0000 C   0  0  0  0  0  0  0  0  0  0  0  0
    5.1023   -4.0268    0.0000 C   0  0  0  0  0  0  0  0  0  0  0  0
    4.9307   -4.8338    0.0000 C   0  0  0  0  0  0  0  0  0  0  0  0
    4.1461   -5.0887    0.0000 C   0  0  0  0  0  0  0  0  0  0  0  0
    3.9746   -5.8957    0.0000 C   0  0  0  0  0  0  0  0  0  0  0  0
    3.8031   -6.7026    0.0000 N   0  0  0  0  0  0  0  0  0  0  0  0
  1  2  1  0  0  0  0
  2  3  2  0  0  0  0
  4  2  1  1  0  0  0
  4  5  1  0  0  0  0
  6  5  1  0  0  0  0
  6  7  1  1  0  0  0
  6  8  1  0  0  0  0
  8  9  1  0  0  0  0
  4  9  1  0  0  0  0
  9 10  1  0  0  0  0
 10 11  2  0  0  0  0
 10 12  1  0  0  0  0
 12 13  2  0  0  0  0
 13 14  1  0  0  0  0
 14 15  2  0  0  0  0
 15 16  1  0  0  0  0
 16 17  1  0  0  0  0
 16 18  2  0  0  0  0
 12 18  1  0  0  0  0
 14 19  1  0  0  0  0
 19 20  2  0  0  0  0
 20 21  1  0  0  0  0
 21 22  2  0  0  0  0
 22 23  1  0  0  0  0
 23 24  2  0  0  0  0
 19 24  1  0  0  0  0
 24 25  1  0  0  0  0
 25 26  3  0  0  0  0
M  END
> <ID>
CPD_957

$$$$
CPD_962
  Mrv1822 09091914012D          

 23 25  0  0  0  0            999 V2000
   -0.7145   -2.8875    0.0000 C   0  0  0  0  0  0  0  0  0  0  0  0
    0.0000   -2.4750    0.0000 C   0  0  0  0  0  0  0  0  0  0  0  0
    0.0000   -1.6500    0.0000 C   0  0  0  0  0  0  0  0  0  0  0  0
    0.7145   -1.2375    0.0000 C   0  0  0  0  0  0  0  0  0  0  0  0
    1.4289   -1.6500    0.0000 C   0  0  0  0  0  0  0  0  0  0  0  0
    1.4289   -2.4750    0.0000 C   0  0  0  0  0  0  0  0  0  0  0  0
    2.1434   -2.8875    0.0000 C   0  0  0  0  0  0  0  0  0  0  0  0
    0.7145   -2.8875    0.0000 C   0  0  0  0  0  0  0  0  0  0  0  0
    0.7145   -0.4125    0.0000 C   0  0  0  0  0  0  0  0  0  0  0  0
   -0.0000    0.0000    0.0000 C   0  0  0  0  0  0  0  0  0  0  0  0
   -0.0000    0.8250    0.0000 C   0  0  0  0  0  0  0  0  0  0  0  0
    0.7145    1.2375    0.0000 C   0  0  0  0  0  0  0  0  0  0  0  0
    1.4289    0.8250    0.0000 C   0  0  0  0  0  0  0  0  0  0  0  0
    2.1434    1.2375    0.0000 C   0  0  0  0  0  0  0  0  0  0  0  0
    2.8579    0.8250    0.0000 C   0  0  0  0  0  0  0  0  0  0  0  0
    2.8579    0.0000    0.0000 O   0  0  0  0  0  0  0  0  0  0  0  0
    3.5724    1.2375    0.0000 N   0  0  0  0  0  0  0  0  0  0  0  0
    4.2868    0.8250    0.0000 C   0  0  0  0  0  0  0  0  0  0  0  0
    5.0013    1.2375    0.0000 C   0  0  0  0  0  0  0  0  0  0  0  0
    5.7158    0.8250    0.0000 C   0  0  0  0  0  0  0  0  0  0  0  0
    6.5408    0.8250    0.0000 C   0  0  0  0  0  0  0  0  0  0  0  0
    6.1283    0.1105    0.0000 C   0  0  0  0  0  0  0  0  0  0  0  0
    1.4289    0.0000    0.0000 C   0  0  0  0  0  0  0  0  0  0  0  0
  1  2  1  0  0  0  0
  2  3  2  0  0  0  0
  3  4  1  0  0  0  0
  4  5  2  0  0  0  0
  5  6  1  0  0  0  0
  6  7  1  0  0  0  0
  6  8  2  0  0  0  0
  2  8  1  0  0  0  0
  4  9  1  0  0  0  0
  9 10  2  0  0  0  0
 10 11  1  0  0  0  0
 11 12  2  0  0  0  0
 12 13  1  0  0  0  0
 13 14  1  0  0  0  0
 14 15  1  0  0  0  0
 15 16  2  0  0  0  0
 15 17  1  0  0  0  0
 17 18  1  0  0  0  0
 18 19  1  0  0  0  0
 19 20  1  0  0  0  0
 20 21  1  0  0  0  0
 21 22  1  0  0  0  0
 20 22  1  0  0  0  0
 13 23  2  0  0  0  0
  9 23  1  0  0  0  0
M  END
> <ID>
CPD_962

$$$$
CPD_967
  Mrv1822 09091914012D          

 25 27  0  0  0  0            999 V2000
   -7.1794    1.7623    0.0000 C   0  0  0  0  0  0  0  0  0  0  0  0
   -7.5150    1.0086    0.0000 C   0  0  0  0  0  0  0  0  0  0  0  0
   -7.0301    0.3412    0.0000 O   0  0  0  0  0  0  0  0  0  0  0  0
   -7.3656   -0.4125    0.0000 C   0  0  0  0  0  0  0  0  0  0  0  0
   -6.8807   -1.0799    0.0000 C   0  0  0  0  0  0  0  0  0  0  0  0
   -7.2163   -1.8336    0.0000 C   0  0  0  0  0  0  0  0  0  0  0  0
   -8.0368   -1.9199    0.0000 C   0  0  0  0  0  0  0  0  0  0  0  0
   -8.5217   -1.2524    0.0000 C   0  0  0  0  0  0  0  0  0  0  0  0
   -8.1861   -0.4987    0.0000 C   0  0  0  0  0  0  0  0  0  0  0  0
   -6.0602   -0.9937    0.0000 N   0  0  0  0  0  0  0  0  0  0  0  0
   -5.6477   -0.2792    0.0000 N   0  0  0  0  0  0  0  0  0  0  0  0
   -4.8408   -0.4508    0.0000 N   0  0  0  0  0  0  0  0  0  0  0  0
   -4.7545   -1.2712    0.0000 C   0  0  0  0  0  0  0  0  0  0  0  0
   -4.0401   -1.6837    0.0000 C   0  0  0  0  0  0  0  0  0  0  0  0
   -4.0401   -2.5087    0.0000 O   0  0  0  0  0  0  0  0  0  0  0  0
   -3.3256   -1.2712    0.0000 N   0  0  0  0  0  0  0  0  0  0  0  0
   -2.6111   -1.6837    0.0000 C   0  0  0  0  0  0  0  0  0  0  0  0
   -1.8966   -1.2712    0.0000 C   0  0  0  0  0  0  0  0  0  0  0  0
   -1.1822   -1.6837    0.0000 C   0  0  0  0  0  0  0  0  0  0  0  0
   -0.3572   -1.6837    0.0000 C   0  0  0  0  0  0  0  0  0  0  0  0
   -0.7697   -2.3982    0.0000 C   0  0  0  0  0  0  0  0  0  0  0  0
   -5.5082   -1.6068    0.0000 C   0  0  0  0  0  0  0  0  0  0  0  0
   -5.6797   -2.4138    0.0000 C   0  0  0  0  0  0  0  0  0  0  0  0
   -5.0666   -2.9658    0.0000 O   0  0  0  0  0  0  0  0  0  0  0  0
   -5.2382   -3.7728    0.0000 C   0  0  0  0  0  0  0  0  0  0  0  0
  1  2  1  0  0  0  0
  2  3  1  0  0  0  0
  3  4  1  0  0  0  0
  4  5  2  0  0  0  0
  5  6  1  0  0  0  0
  6  7  2  0  0  0  0
  7  8  1  0  0  0  0
  8  9  2  0  0  0  0
  4  9  1  0  0  0  0
  5 10  1  0  0  0  0
 10 11  1  0  0  0  0
 11 12  2  0  0  0  0
 12 13  1  0  0  0  0
 13 14  1  0  0  0  0
 14 15  2  0  0  0  0
 14 16  1  0  0  0  0
 16 17  1  0  0  0  0
 17 18  1  0  0  0  0
 18 19  1  0  0  0  0
 19 20  1  0  0  0  0
 20 21  1  0  0  0  0
 19 21  1  0  0  0  0
 13 22  2  0  0  0  0
 10 22  1  0  0  0  0
 22 23  1  0  0  0  0
 23 24  1  0  0  0  0
 24 25  1  0  0  0  0
M  END
> <ID>
CPD_967

$$$$
CPD_972
  Mrv1822 09091914012D          

 33 36  0  0  0  0            999 V2000
   -7.5572   -8.8368    0.0000 C   0  0  0  0  0  0  0  0  0  0  0  0
   -7.5572   -8.0118    0.0000 C   0  0  0  0  0  0  0  0  0  0  0  0
   -6.8427   -7.5993    0.0000 N   0  0  0  0  0  0  0  0  0  0  0  0
   -6.8427   -6.7743    0.0000 C   0  0  0  0  0  0  0  0  0  0  0  0
   -6.1283   -6.3618    0.0000 C   0  0  0  0  0  0  0  0  0  0  0  0
   -5.4138   -6.7743    0.0000 N   0  0  0  0  0  0  0  0  0  0  0  0
   -5.4138   -7.5993    0.0000 C   0  0  0  0  0  0  0  0  0  0  0  0
   -6.1283   -8.0118    0.0000 C   0  0  0  0  0  0  0  0  0  0  0  0
   -4.6993   -6.3618    0.0000 C   0  0  0  0  0  0  0  0  0  0  0  0
   -3.9849   -6.7743    0.0000 C   0  0  0  0  0  0  0  0  0  0  0  0
   -3.2704   -6.3618    0.0000 C   0  0  0  0  0  0  0  0  0  0  0  0
   -3.2704   -5.5368    0.0000 C   0  0  0  0  0  0  0  0  0  0  0  0
   -3.9849   -5.1243    0.0000 C   0  0  0  0  0  0  0  0  0  0  0  0
   -4.6993   -5.5368    0.0000 C   0  0  0  0  0  0  0  0  0  0  0  0
   -5.4138   -5.1243    0.0000 N   0  0  0  0  0  0  0  0  0  0  0  0
   -5.4138   -4.2993    0.0000 C   0  0  0  0  0  0  0  0  0  0  0  0
   -4.6993   -3.8868    0.0000 O   0  0  0  0  0  0  0  0  0  0  0  0
   -6.1283   -3.8868    0.0000 C   0  0  0  0  0  0  0  0  0  0  0  0
   -6.1283   -3.0618    0.0000 O   0  0  0  0  0  0  0  0  0  0  0  0
   -6.8427   -2.6493    0.0000 C   0  0  0  0  0  0  0  0  0  0  0  0
   -7.5572   -3.0618    0.0000 C   0  0  0  0  0  0  0  0  0  0  0  0
   -8.2717   -2.6493    0.0000 C   0  0  0  0  0  0  0  0  0  0  0  0
   -8.2717   -1.8243    0.0000 C   0  0  0  0  0  0  0  0  0  0  0  0
   -7.5572   -1.4118    0.0000 C   0  0  0  0  0  0  0  0  0  0  0  0
   -6.8427   -1.8243    0.0000 C   0  0  0  0  0  0  0  0  0  0  0  0
   -2.5559   -5.1243    0.0000 C   0  0  0  0  0  0  0  0  0  0  0  0
   -2.5559   -4.2993    0.0000 O   0  0  0  0  0  0  0  0  0  0  0  0
   -1.8414   -5.5368    0.0000 N   0  0  0  0  0  0  0  0  0  0  0  0
   -1.8414   -6.3618    0.0000 C   0  0  0  0  0  0  0  0  0  0  0  0
   -1.1270   -6.7743    0.0000 C   0  0  0  0  0  0  0  0  0  0  0  0
   -1.1270   -7.5993    0.0000 C   0  0  0  0  0  0  0  0  0  0  0  0
   -0.7145   -8.3138    0.0000 C   0  0  0  0  0  0  0  0  0  0  0  0
   -1.5395   -8.3138    0.0000 C   0  0  0  0  0  0  0  0  0  0  0  0
  1  2  1  0  0  0  0
  2  3  1  0  0  0  0
  3  4  1  0  0  0  0
  4  5  1  0  0  0  0
  5  6  1  0  0  0  0
  6  7  1  0  0  0  0
  7  8  1  0  0  0  0
  3  8  1  0  0  0  0
  6  9  1  0  0  0  0
  9 10  2  0  0  0  0
 10 11  1  0  0  0  0
 11 12  2  0  0  0  0
 12 13  1  0  0  0  0
 13 14  2  0  0  0  0
  9 14  1  0  0  0  0
 14 15  1  0  0  0  0
 15 16  1  0  0  0  0
 16 17  2  0  0  0  0
 16 18  1  0  0  0  0
 18 19  1  0  0  0  0
 19 20  1  0  0  0  0
 20 21  2  0  0  0  0
 21 22  1  0  0  0  0
 22 23  2  0  0  0  0
 23 24  1  0  0  0  0
 24 25  2  0  0  0  0
 20 25  1  0  0  0  0
 12 26  1  0  0  0  0
 26 27  2  0  0  0  0
 26 28  1  0  0  0  0
 28 29  1  0  0  0  0
 29 30  1  0  0  0  0
 30 31  1  0  0  0  0
 31 32  1  0  0  0  0
 32 33  1  0  0  0  0
 31 33  1  0  0  0  0
M  END
> <ID>
CPD_972

$$$$
CPD_977
  Mrv1822 09091914012D          

 19 21  0  0  0  0            999 V2000
    0.5619   -2.6907    0.0000 O   0  0  0  0  0  0  0  0  0  0  0  0
    0.5619   -3.5157    0.0000 C   0  0  0  0  0  0  0  0  0  0  0  0
    1.2763   -3.9282    0.0000 N   0  0  0  0  0  0  0  0  0  0  0  0
    1.9908   -3.5157    0.0000 C   0  0  0  0  0  0  0  0  0  0  0  0
    2.7053   -3.9282    0.0000 C   0  0  0  0  0  0  0  0  0  0  0  0
    3.4197   -3.5157    0.0000 C   0  0  0  0  0  0  0  0  0  0  0  0
    3.8322   -2.8012    0.0000 C   0  0  0  0  0  0  0  0  0  0  0  0
    4.2447   -3.5157    0.0000 C   0  0  0  0  0  0  0  0  0  0  0  0
   -0.1526   -3.9282    0.0000 C   0  0  0  0  0  0  0  0  0  0  0  0
   -0.2388   -4.7486    0.0000 N   0  0  0  0  0  0  0  0  0  0  0  0
   -1.0458   -4.9202    0.0000 O   0  0  0  0  0  0  0  0  0  0  0  0
   -1.4583   -4.2057    0.0000 C   0  0  0  0  0  0  0  0  0  0  0  0
   -0.9063   -3.5926    0.0000 C   0  0  0  0  0  0  0  0  0  0  0  0
   -2.2788   -4.1195    0.0000 C   0  0  0  0  0  0  0  0  0  0  0  0
   -2.7637   -4.7869    0.0000 C   0  0  0  0  0  0  0  0  0  0  0  0
   -3.5842   -4.7007    0.0000 C   0  0  0  0  0  0  0  0  0  0  0  0
   -3.9198   -3.9470    0.0000 C   0  0  0  0  0  0  0  0  0  0  0  0
   -3.4348   -3.2795    0.0000 C   0  0  0  0  0  0  0  0  0  0  0  0
   -2.6144   -3.3658    0.0000 N   0  0  0  0  0  0  0  0  0  0  0  0
  1  2  2  0  0  0  0
  2  3  1  0  0  0  0
  3  4  1  0  0  0  0
  4  5  1  0  0  0  0
  5  6  1  0  0  0  0
  6  7  1  0  0  0  0
  7  8  1  0  0  0  0
  6  8  1  0  0  0  0
  2  9  1  0  0  0  0
  9 10  2  0  0  0  0
 10 11  1  0  0  0  0
 11 12  1  0  0  0  0
 12 13  2  0  0  0  0
  9 13  1  0  0  0  0
 12 14  1  0  0  0  0
 14 15  2  0  0  0  0
 15 16  1  0  0  0  0
 16 17  2  0  0  0  0
 17 18  1  0  0  0  0
 18 19  2  0  0  0  0
 14 19  1  0  0  0  0
M  END
> <ID>
CPD_977

$$$$
CPD_982
  Mrv1822 09091914012D          

 28 29  0  0  0  0            999 V2000
   -2.4269    2.3412    0.0000 N   0  0  0  0  0  0  0  0  0  0  0  0
   -2.4269    1.5162    0.0000 C   0  0  0  0  0  0  0  0  0  0  0  0
   -1.7124    1.1037    0.0000 C   0  0  0  0  0  0  0  0  0  0  0  0
   -1.7124    0.2787    0.0000 C   0  0  0  0  0  0  0  0  0  0  0  0
   -2.4269   -0.1338    0.0000 C   0  0  0  0  0  0  0  0  0  0  0  0
   -3.1413    0.2787    0.0000 C   0  0  0  0  0  0  0  0  0  0  0  0
   -3.1413    1.1037    0.0000 C   0  0  0  0  0  0  0  0  0  0  0  0
   -3.8558    1.5162    0.0000 C   0  0  0  0  0  0  0  0  0  0  0  0
   -3.8558    2.3412    0.0000 C   0  0  0  0  0  0  0  0  0  0  0  0
   -3.1413    2.7537    0.0000 O   0  0  0  0  0  0  0  0  0  0  0  0
   -4.5703    2.7537    0.0000 N   0  0  0  0  0  0  0  0  0  0  0  0
   -5.2848    2.3412    0.0000 C   0  0  0  0  0  0  0  0  0  0  0  0
   -5.5279    3.1296    0.0000 C   0  0  0  0  0  0  0  0  0  0  0  0
   -6.3322    3.3132    0.0000 C   0  0  0  0  0  0  0  0  0  0  0  0
   -6.5754    4.1015    0.0000 O   0  0  0  0  0  0  0  0  0  0  0  0
   -6.8934    2.7084    0.0000 O   0  0  0  0  0  0  0  0  0  0  0  0
   -4.7236    1.7365    0.0000 C   0  0  0  0  0  0  0  0  0  0  0  0
   -4.8466    0.9207    0.0000 C   0  0  0  0  0  0  0  0  0  0  0  0
   -5.5610    0.5082    0.0000 C   0  0  0  0  0  0  0  0  0  0  0  0
   -6.3290    0.8096    0.0000 C   0  0  0  0  0  0  0  0  0  0  0  0
   -6.5722    1.5979    0.0000 C   0  0  0  0  0  0  0  0  0  0  0  0
   -6.1074    2.2796    0.0000 C   0  0  0  0  0  0  0  0  0  0  0  0
   -2.4269   -0.9588    0.0000 S   0  0  0  0  0  0  0  0  0  0  0  0
   -2.4269   -1.7838    0.0000 F   0  0  0  0  0  0  0  0  0  0  0  0
   -1.7124   -1.3713    0.0000 F   0  0  0  0  0  0  0  0  0  0  0  0
   -1.7124   -0.5463    0.0000 F   0  0  0  0  0  0  0  0  0  0  0  0
   -3.1413   -0.5463    0.0000 F   0  0  0  0  0  0  0  0  0  0  0  0
   -3.1413   -1.3713    0.0000 F   0  0  0  0  0  0  0  0  0  0  0  0
  1  2  1  0  0  0  0
  2  3  2  0  0  0  0
  3  4  1  0  0  0  0
  4  5  2  0  0  0  0
  5  6  1  0  0  0  0
  6  7  2  0  0  0  0
  2  7  1  0  0  0  0
  7  8  1  0  0  0  0
  8  9  1  0  0  0  0
  9 10  2  0  0  0  0
  9 11  1  0  0  0  0
 11 12  1  0  0  0  0
 12 13  1  0  0  0  0
 13 14  1  0  0  0  0
 14 15  1  0  0  0  0
 14 16  2  0  0  0  0
 12 17  1  0  0  0  0
 17 18  1  0  0  0  0
 18 19  1  0  0  0  0
 19 20  1  0  0  0  0
 20 21  1  0  0  0  0
 21 22  1  0  0  0  0
 12 22  1  0  0  0  0
  5 23  1  0  0  0  0
 23 24  1  0  0  0  0
 23 25  1  0  0  0  0
 23 26  1  0  0  0  0
 23 27  1  0  0  0  0
 23 28  1  0  0  0  0
M  END
> <ID>
CPD_982

$$$$
CPD_987
  Mrv1822 09091914012D          

 33 35  0  0  0  0            999 V2000
   -2.4997    0.3803    0.0000 C   0  0  0  0  0  0  0  0  0  0  0  0
   -1.7852   -0.0322    0.0000 O   0  0  0  0  0  0  0  0  0  0  0  0
   -1.7852   -0.8572    0.0000 C   0  0  0  0  0  0  0  0  0  0  0  0
   -1.0707   -1.2697    0.0000 C   0  0  0  0  0  0  0  0  0  0  0  0
   -1.0707   -2.0947    0.0000 N   0  0  0  0  0  0  0  0  0  0  0  0
   -0.4033   -2.5796    0.0000 C   0  0  0  0  0  0  0  0  0  0  0  0
    0.3813   -2.3247    0.0000 C   0  0  0  0  0  0  0  0  0  0  0  0
   -0.6582   -3.3642    0.0000 C   0  0  0  0  0  0  0  0  0  0  0  0
   -0.1733   -4.0317    0.0000 C   0  0  0  0  0  0  0  0  0  0  0  0
   -0.5089   -4.7854    0.0000 O   0  0  0  0  0  0  0  0  0  0  0  0
    0.6472   -3.9454    0.0000 N   0  0  0  0  0  0  0  0  0  0  0  0
    1.1321   -4.6129    0.0000 C   0  0  0  0  0  0  0  0  0  0  0  0
    0.3735   -4.9371    0.0000 C   0  0  0  0  0  0  0  0  0  0  0  0
    0.2750   -5.7562    0.0000 C   0  0  0  0  0  0  0  0  0  0  0  0
   -0.4836   -6.0805    0.0000 O   0  0  0  0  0  0  0  0  0  0  0  0
    0.9351   -6.2511    0.0000 O   0  0  0  0  0  0  0  0  0  0  0  0
    1.6749   -3.9916    0.0000 C   0  0  0  0  0  0  0  0  0  0  0  0
    2.4991   -4.0286    0.0000 C   0  0  0  0  0  0  0  0  0  0  0  0
    2.9840   -4.6960    0.0000 C   0  0  0  0  0  0  0  0  0  0  0  0
    2.7645   -5.4913    0.0000 C   0  0  0  0  0  0  0  0  0  0  0  0
    2.0059   -5.8156    0.0000 C   0  0  0  0  0  0  0  0  0  0  0  0
    1.2794   -5.4246    0.0000 C   0  0  0  0  0  0  0  0  0  0  0  0
   -1.4832   -3.3642    0.0000 C   0  0  0  0  0  0  0  0  0  0  0  0
   -1.9682   -4.0317    0.0000 C   0  0  0  0  0  0  0  0  0  0  0  0
   -1.7382   -2.5796    0.0000 C   0  0  0  0  0  0  0  0  0  0  0  0
   -2.5228   -2.3247    0.0000 C   0  0  0  0  0  0  0  0  0  0  0  0
   -3.1359   -2.8767    0.0000 C   0  0  0  0  0  0  0  0  0  0  0  0
   -3.9205   -2.6218    0.0000 C   0  0  0  0  0  0  0  0  0  0  0  0
   -4.0920   -1.8148    0.0000 C   0  0  0  0  0  0  0  0  0  0  0  0
   -4.8767   -1.5599    0.0000 O   0  0  0  0  0  0  0  0  0  0  0  0
   -5.4898   -2.1119    0.0000 C   0  0  0  0  0  0  0  0  0  0  0  0
   -3.4789   -1.2628    0.0000 C   0  0  0  0  0  0  0  0  0  0  0  0
   -2.6943   -1.5177    0.0000 C   0  0  0  0  0  0  0  0  0  0  0  0
  1  2  1  0  0  0  0
  2  3  1  0  0  0  0
  3  4  1  0  0  0  0
  4  5  1  0  0  0  0
  5  6  1  0  0  0  0
  6  7  1  0  0  0  0
  6  8  2  0  0  0  0
  8  9  1  0  0  0  0
  9 10  2  0  0  0  0
  9 11  1  0  0  0  0
 11 12  1  0  0  0  0
 12 13  1  0  0  0  0
 13 14  1  0  0  0  0
 14 15  1  0  0  0  0
 14 16  2  0  0  0  0
 12 17  1  0  0  0  0
 17 18  1  0  0  0  0
 18 19  1  0  0  0  0
 19 20  1  0  0  0  0
 20 21  1  0  0  0  0
 21 22  1  0  0  0  0
 12 22  1  0  0  0  0
  8 23  1  0  0  0  0
 23 24  1  0  0  0  0
 23 25  2  0  0  0  0
  5 25  1  0  0  0  0
 25 26  1  0  0  0  0
 26 27  2  0  0  0  0
 27 28  1  0  0  0  0
 28 29  2  0  0  0  0
 29 30  1  0  0  0  0
 30 31  1  0  0  0  0
 29 32  1  0  0  0  0
 32 33  2  0  0  0  0
 26 33  1  0  0  0  0
M  END
> <ID>
CPD_987

$$$$
CPD_992
  Mrv1822 09091914012D          

 19 22  0  0  0  0            999 V2000
   -1.8659    0.0165    0.0000 O   0  0  0  0  0  0  0  0  0  0  0  0
   -1.4534   -0.6979    0.0000 C   0  0  0  0  0  0  0  0  0  0  0  0
   -1.8659   -1.4124    0.0000 N   0  0  0  0  0  0  0  0  0  0  0  0
   -1.5304   -2.1661    0.0000 C   0  0  0  0  0  0  0  0  0  0  0  0
   -2.1435   -2.7181    0.0000 C   0  0  0  0  0  0  0  0  0  0  0  0
   -2.8579   -2.3056    0.0000 C   0  0  0  0  0  0  0  0  0  0  0  0
   -3.1536   -3.0758    0.0000 C   0  0  0  0  0  0  0  0  0  0  0  0
   -3.9238   -2.7802    0.0000 O   0  0  0  0  0  0  0  0  0  0  0  0
   -3.6281   -2.0100    0.0000 C   0  0  0  0  0  0  0  0  0  0  0  0
   -2.6864   -1.4986    0.0000 C   0  0  0  0  0  0  0  0  0  0  0  0
   -0.6284   -0.6979    0.0000 C   0  0  0  0  0  0  0  0  0  0  0  0
   -0.1435   -1.3654    0.0000 N   0  0  0  0  0  0  0  0  0  0  0  0
    0.6411   -1.1104    0.0000 C   0  0  0  0  0  0  0  0  0  0  0  0
    0.6411   -0.2854    0.0000 C   0  0  0  0  0  0  0  0  0  0  0  0
   -0.1435   -0.0305    0.0000 S   0  0  0  0  0  0  0  0  0  0  0  0
    1.3556    0.1271    0.0000 C   0  0  0  0  0  0  0  0  0  0  0  0
    2.0701   -0.2854    0.0000 C   0  0  0  0  0  0  0  0  0  0  0  0
    2.0701   -1.1104    0.0000 C   0  0  0  0  0  0  0  0  0  0  0  0
    1.3556   -1.5229    0.0000 C   0  0  0  0  0  0  0  0  0  0  0  0
  1  2  2  0  0  0  0
  2  3  1  0  0  0  0
  3  4  1  0  0  0  0
  4  5  1  0  0  0  0
  5  6  1  0  0  0  0
  6  7  1  0  0  0  0
  7  8  1  0  0  0  0
  8  9  1  0  0  0  0
  6  9  1  0  0  0  0
  6 10  1  0  0  0  0
  3 10  1  0  0  0  0
  2 11  1  0  0  0  0
 11 12  2  0  0  0  0
 12 13  1  0  0  0  0
 13 14  2  0  0  0  0
 14 15  1  0  0  0  0
 11 15  1  0  0  0  0
 14 16  1  0  0  0  0
 16 17  2  0  0  0  0
 17 18  1  0  0  0  0
 18 19  2  0  0  0  0
 13 19  1  0  0  0  0
M  END
> <ID>
CPD_992

$$$$
CPD_997
  Mrv1822 09091914012D          

 31 34  0  0  0  0            999 V2000
    9.1532    0.1011    0.0000 C   0  0  0  0  0  0  0  0  0  0  0  0
    8.6012    0.7142    0.0000 C   0  0  0  0  0  0  0  0  0  0  0  0
    7.7942    0.5426    0.0000 O   0  0  0  0  0  0  0  0  0  0  0  0
    7.2422    1.1557    0.0000 C   0  0  0  0  0  0  0  0  0  0  0  0
    7.4971    1.9403    0.0000 O   0  0  0  0  0  0  0  0  0  0  0  0
    6.4352    0.9842    0.0000 C   0  0  0  0  0  0  0  0  0  0  0  0
    6.0996    0.2305    0.0000 C   0  0  0  0  0  0  0  0  0  0  0  0
    6.5121   -0.4839    0.0000 N   0  0  0  0  0  0  0  0  0  0  0  0
    5.2792    0.3168    0.0000 C   0  0  0  0  0  0  0  0  0  0  0  0
    4.7271   -0.2963    0.0000 C   0  0  0  0  0  0  0  0  0  0  0  0
    3.9202   -0.1248    0.0000 O   0  0  0  0  0  0  0  0  0  0  0  0
    4.9821   -1.0810    0.0000 N   0  0  0  0  0  0  0  0  0  0  0  0
    5.7890   -1.2525    0.0000 C   0  0  0  0  0  0  0  0  0  0  0  0
    6.0440   -2.0371    0.0000 C   0  0  0  0  0  0  0  0  0  0  0  0
    5.4919   -2.6502    0.0000 O   0  0  0  0  0  0  0  0  0  0  0  0
    4.6850   -2.4787    0.0000 C   0  0  0  0  0  0  0  0  0  0  0  0
    4.4300   -1.6941    0.0000 C   0  0  0  0  0  0  0  0  0  0  0  0
    5.1076    1.1237    0.0000 C   0  0  0  0  0  0  0  0  0  0  0  0
    4.3540    1.4593    0.0000 S   0  0  0  0  0  0  0  0  0  0  0  0
    3.6865    0.9744    0.0000 C   0  0  0  0  0  0  0  0  0  0  0  0
    2.9328    1.3099    0.0000 C   0  0  0  0  0  0  0  0  0  0  0  0
    2.8466    2.1304    0.0000 O   0  0  0  0  0  0  0  0  0  0  0  0
    2.2654    0.8250    0.0000 N   0  0  0  0  0  0  0  0  0  0  0  0
    2.2654    0.0000    0.0000 C   0  0  0  0  0  0  0  0  0  0  0  0
    1.4808   -0.2549    0.0000 C   0  0  0  0  0  0  0  0  0  0  0  0
    0.9959    0.4125    0.0000 C   0  0  0  0  0  0  0  0  0  0  0  0
    0.4125   -0.1709    0.0000 C   0  0  0  0  0  0  0  0  0  0  0  0
   -0.1709    0.4125    0.0000 O   0  0  0  0  0  0  0  0  0  0  0  0
    0.4125    0.9959    0.0000 C   0  0  0  0  0  0  0  0  0  0  0  0
    1.4808    1.0799    0.0000 C   0  0  0  0  0  0  0  0  0  0  0  0
    5.8221    1.5362    0.0000 S   0  0  0  0  0  0  0  0  0  0  0  0
  1  2  1  0  0  0  0
  2  3  1  0  0  0  0
  3  4  1  0  0  0  0
  4  5  2  0  0  0  0
  4  6  1  0  0  0  0
  6  7  2  0  0  0  0
  7  8  1  0  0  0  0
  7  9  1  0  0  0  0
  9 10  1  0  0  0  0
 10 11  2  0  0  0  0
 10 12  1  0  0  0  0
 12 13  1  0  0  0  0
 13 14  1  0  0  0  0
 14 15  1  0  0  0  0
 15 16  1  0  0  0  0
 16 17  1  0  0  0  0
 12 17  1  0  0  0  0
  9 18  2  0  0  0  0
 18 19  1  0  0  0  0
 19 20  1  0  0  0  0
 20 21  1  0  0  0  0
 21 22  2  0  0  0  0
 21 23  1  0  0  0  0
 23 24  1  0  0  0  0
 24 25  1  0  0  0  0
 25 26  1  0  0  0  0
 26 27  1  0  0  0  0
 27 28  1  0  0  0  0
 28 29  1  0  0  0  0
 26 29  1  0  0  0  0
 26 30  1  0  0  0  0
 23 30  1  0  0  0  0
 18 31  1  0  0  0  0
  6 31  1  0  0  0  0
M  END
> <ID>
CPD_997

$$$$
CPD_1002
  Mrv1822 09091914012D          

 25 29  0  0  0  0            999 V2000
   -1.7224    0.0470    0.0000 O   0  0  0  0  0  0  0  0  0  0  0  0
   -1.3099   -0.6674    0.0000 C   0  0  0  0  0  0  0  0  0  0  0  0
   -1.7224   -1.3819    0.0000 N   0  0  0  0  0  0  0  0  0  0  0  0
   -1.3869   -2.1356    0.0000 C   0  0  0  0  0  0  0  0  0  0  0  0
   -2.0000   -2.6876    0.0000 C   0  0  0  0  0  0  0  0  0  0  0  0
   -2.7144   -2.2751    0.0000 C   0  0  0  0  0  0  0  0  0  0  0  0
   -3.0101   -3.0453    0.0000 C   0  0  0  0  0  0  0  0  0  0  0  0
   -3.7803   -2.7497    0.0000 O   0  0  0  0  0  0  0  0  0  0  0  0
   -3.4846   -1.9795    0.0000 C   0  0  0  0  0  0  0  0  0  0  0  0
   -2.5429   -1.4681    0.0000 C   0  0  0  0  0  0  0  0  0  0  0  0
   -0.4849   -0.6674    0.0000 C   0  0  0  0  0  0  0  0  0  0  0  0
   -0.0000   -1.3349    0.0000 C   0  0  0  0  0  0  0  0  0  0  0  0
    0.7846   -1.0799    0.0000 C   0  0  0  0  0  0  0  0  0  0  0  0
    0.7846   -0.2549    0.0000 C   0  0  0  0  0  0  0  0  0  0  0  0
    1.5692    0.0000    0.0000 C   0  0  0  0  0  0  0  0  0  0  0  0
    2.0542   -0.6674    0.0000 C   0  0  0  0  0  0  0  0  0  0  0  0
    1.5692   -1.3349    0.0000 C   0  0  0  0  0  0  0  0  0  0  0  0
   -0.0000    0.0000    0.0000 N   0  0  0  0  0  0  0  0  0  0  0  0
   -0.2549    0.7846    0.0000 C   0  0  0  0  0  0  0  0  0  0  0  0
    0.2971    1.3977    0.0000 C   0  0  0  0  0  0  0  0  0  0  0  0
    0.0422    2.1823    0.0000 C   0  0  0  0  0  0  0  0  0  0  0  0
    0.5942    2.7954    0.0000 C   0  0  0  0  0  0  0  0  0  0  0  0
    1.4012    2.6239    0.0000 C   0  0  0  0  0  0  0  0  0  0  0  0
    1.6561    1.8393    0.0000 C   0  0  0  0  0  0  0  0  0  0  0  0
    1.1041    1.2262    0.0000 C   0  0  0  0  0  0  0  0  0  0  0  0
  1  2  2  0  0  0  0
  2  3  1  0  0  0  0
  3  4  1  0  0  0  0
  4  5  1  0  0  0  0
  5  6  1  0  0  0  0
  6  7  1  0  0  0  0
  7  8  1  0  0  0  0
  8  9  1  0  0  0  0
  6  9  1  0  0  0  0
  6 10  1  0  0  0  0
  3 10  1  0  0  0  0
  2 11  1  0  0  0  0
 11 12  2  0  0  0  0
 12 13  1  0  0  0  0
 13 14  2  0  0  0  0
 14 15  1  0  0  0  0
 15 16  1  0  0  0  0
 16 17  1  0  0  0  0
 13 17  1  0  0  0  0
 14 18  1  0  0  0  0
 11 18  1  0  0  0  0
 18 19  1  0  0  0  0
 19 20  1  0  0  0  0
 20 21  2  0  0  0  0
 21 22  1  0  0  0  0
 22 23  2  0  0  0  0
 23 24  1  0  0  0  0
 24 25  2  0  0  0  0
 20 25  1  0  0  0  0
M  END
> <ID>
CPD_1002

$$$$
CPD_1007
  Mrv1822 09091914012D          

 18 19  0  0  0  0            999 V2000
    1.4289    9.6536    0.0000 C   0  0  0  0  0  0  0  0  0  0  0  0
    2.1434    9.2411    0.0000 C   0  0  0  0  0  0  0  0  0  0  0  0
    2.1434    8.4161    0.0000 C   0  0  0  0  0  0  0  0  0  0  0  0
    2.8579    8.0036    0.0000 C   0  0  0  0  0  0  0  0  0  0  0  0
    2.8579    7.1786    0.0000 C   0  0  0  0  0  0  0  0  0  0  0  0
    2.1434    6.7661    0.0000 C   0  0  0  0  0  0  0  0  0  0  0  0
    1.4289    7.1786    0.0000 C   0  0  0  0  0  0  0  0  0  0  0  0
    1.4289    8.0036    0.0000 C   0  0  0  0  0  0  0  0  0  0  0  0
    2.1434    5.9411    0.0000 C   0  0  0  0  0  0  0  0  0  0  0  0
    2.8579    5.5286    0.0000 O   0  0  0  0  0  0  0  0  0  0  0  0
    1.4289    5.5286    0.0000 N   0  0  0  0  0  0  0  0  0  0  0  0
    1.4289    4.7036    0.0000 C   0  0  0  0  0  0  0  0  0  0  0  0
    2.0964    4.2187    0.0000 N   0  0  0  0  0  0  0  0  0  0  0  0
    1.8414    3.4340    0.0000 N   0  0  0  0  0  0  0  0  0  0  0  0
    1.0164    3.4340    0.0000 C   0  0  0  0  0  0  0  0  0  0  0  0
    0.5315    2.7666    0.0000 C   0  0  0  0  0  0  0  0  0  0  0  0
    0.8671    2.0129    0.0000 N   0  0  0  0  0  0  0  0  0  0  0  0
    0.7615    4.2187    0.0000 S   0  0  0  0  0  0  0  0  0  0  0  0
  1  2  1  0  0  0  0
  2  3  1  0  0  0  0
  3  4  2  0  0  0  0
  4  5  1  0  0  0  0
  5  6  2  0  0  0  0
  6  7  1  0  0  0  0
  7  8  2  0  0  0  0
  3  8  1  0  0  0  0
  6  9  1  0  0  0  0
  9 10  2  0  0  0  0
  9 11  1  0  0  0  0
 11 12  1  0  0  0  0
 12 13  2  0  0  0  0
 13 14  1  0  0  0  0
 14 15  2  0  0  0  0
 15 16  1  0  0  0  0
 16 17  1  0  0  0  0
 15 18  1  0  0  0  0
 12 18  1  0  0  0  0
M  END
> <ID>
CPD_1007

$$$$
CPD_1012
  Mrv1822 09091914012D          

 22 24  0  0  0  0            999 V2000
    4.1570    1.1270    0.0000 C   0  0  0  0  0  0  0  0  0  0  0  0
    3.7445    0.4125    0.0000 C   0  0  0  0  0  0  0  0  0  0  0  0
    4.1570   -0.3020    0.0000 O   0  0  0  0  0  0  0  0  0  0  0  0
    2.9195    0.4125    0.0000 N   0  0  0  0  0  0  0  0  0  0  0  0
    2.5070   -0.3020    0.0000 C   0  0  0  0  0  0  0  0  0  0  0  0
    1.6820   -0.3020    0.0000 C   0  0  0  0  0  0  0  0  0  0  0  0
    1.2695    0.4125    0.0000 C   0  0  0  0  0  0  0  0  0  0  0  0
    0.7846   -0.2549    0.0000 C   0  0  0  0  0  0  0  0  0  0  0  0
    0.0000   -0.0000    0.0000 N   0  0  0  0  0  0  0  0  0  0  0  0
   -0.0000    0.8250    0.0000 C   0  0  0  0  0  0  0  0  0  0  0  0
   -0.6674    1.3099    0.0000 O   0  0  0  0  0  0  0  0  0  0  0  0
    0.7846    1.0799    0.0000 O   0  0  0  0  0  0  0  0  0  0  0  0
   -0.6674   -0.4849    0.0000 C   0  0  0  0  0  0  0  0  0  0  0  0
   -0.5812   -1.3054    0.0000 C   0  0  0  0  0  0  0  0  0  0  0  0
   -1.2486   -1.7903    0.0000 C   0  0  0  0  0  0  0  0  0  0  0  0
   -2.0023   -1.4548    0.0000 C   0  0  0  0  0  0  0  0  0  0  0  0
   -2.6698   -1.9397    0.0000 Cl  0  0  0  0  0  0  0  0  0  0  0  0
   -2.0886   -0.6343    0.0000 C   0  0  0  0  0  0  0  0  0  0  0  0
   -1.4211   -0.1494    0.0000 C   0  0  0  0  0  0  0  0  0  0  0  0
   -1.5074    0.6711    0.0000 F   0  0  0  0  0  0  0  0  0  0  0  0
    1.6820    1.1270    0.0000 C   0  0  0  0  0  0  0  0  0  0  0  0
    2.5070    1.1270    0.0000 C   0  0  0  0  0  0  0  0  0  0  0  0
  1  2  1  0  0  0  0
  2  3  2  0  0  0  0
  2  4  1  0  0  0  0
  4  5  1  0  0  0  0
  5  6  1  0  0  0  0
  6  7  1  0  0  0  0
  7  8  1  0  0  0  0
  8  9  1  0  0  0  0
  9 10  1  0  0  0  0
 10 11  2  0  0  0  0
 10 12  1  0  0  0  0
  7 12  1  0  0  0  0
  9 13  1  0  0  0  0
 13 14  2  0  0  0  0
 14 15  1  0  0  0  0
 15 16  2  0  0  0  0
 16 17  1  0  0  0  0
 16 18  1  0  0  0  0
 18 19  2  0  0  0  0
 13 19  1  0  0  0  0
 19 20  1  0  0  0  0
  7 21  1  0  0  0  0
 21 22  1  0  0  0  0
  4 22  1  0  0  0  0
M  END
> <ID>
CPD_1012

$$$$
CPD_1017
  Mrv1822 09091914012D          

 27 30  0  0  1  0            999 V2000
    4.3483    3.2532    0.0000 C   0  0  0  0  0  0  0  0  0  0  0  0
    4.4346    2.4327    0.0000 N   0  0  0  0  0  0  0  0  0  0  0  0
    5.1491    2.0202    0.0000 C   0  0  0  0  0  0  0  0  0  0  0  0
    4.9775    1.2132    0.0000 C   0  0  0  0  0  0  0  0  0  0  0  0
    4.1570    1.1270    0.0000 C   0  0  1  0  0  0  0  0  0  0  0  0
    3.8215    1.8806    0.0000 C   0  0  0  0  0  0  0  0  0  0  0  0
    3.7445    0.4125    0.0000 C   0  0  0  0  0  0  0  0  0  0  0  0
    4.1570   -0.3020    0.0000 O   0  0  0  0  0  0  0  0  0  0  0  0
    2.9195    0.4125    0.0000 N   0  0  0  0  0  0  0  0  0  0  0  0
    2.5070   -0.3020    0.0000 C   0  0  0  0  0  0  0  0  0  0  0  0
    1.6820   -0.3020    0.0000 C   0  0  0  0  0  0  0  0  0  0  0  0
    1.2695    0.4125    0.0000 C   0  0  0  0  0  0  0  0  0  0  0  0
    0.7846   -0.2549    0.0000 C   0  0  0  0  0  0  0  0  0  0  0  0
    0.0000   -0.0000    0.0000 N   0  0  0  0  0  0  0  0  0  0  0  0
   -0.0000    0.8250    0.0000 C   0  0  0  0  0  0  0  0  0  0  0  0
   -0.6674    1.3099    0.0000 O   0  0  0  0  0  0  0  0  0  0  0  0
    0.7846    1.0799    0.0000 O   0  0  0  0  0  0  0  0  0  0  0  0
   -0.6674   -0.4849    0.0000 C   0  0  0  0  0  0  0  0  0  0  0  0
   -0.5812   -1.3054    0.0000 C   0  0  0  0  0  0  0  0  0  0  0  0
   -1.2486   -1.7903    0.0000 C   0  0  0  0  0  0  0  0  0  0  0  0
   -2.0023   -1.4548    0.0000 C   0  0  0  0  0  0  0  0  0  0  0  0
   -2.6698   -1.9397    0.0000 Cl  0  0  0  0  0  0  0  0  0  0  0  0
   -2.0886   -0.6343    0.0000 C   0  0  0  0  0  0  0  0  0  0  0  0
   -1.4211   -0.1494    0.0000 C   0  0  0  0  0  0  0  0  0  0  0  0
   -1.5074    0.6711    0.0000 F   0  0  0  0  0  0  0  0  0  0  0  0
    1.6820    1.1270    0.0000 C   0  0  0  0  0  0  0  0  0  0  0  0
    2.5070    1.1270    0.0000 C   0  0  0  0  0  0  0  0  0  0  0  0
  1  2  1  0  0  0  0
  2  3  1  0  0  0  0
  3  4  1  0  0  0  0
  5  4  1  0  0  0  0
  5  6  1  0  0  0  0
  2  6  1  0  0  0  0
  5  7  1  6  0  0  0
  7  8  2  0  0  0  0
  7  9  1  0  0  0  0
  9 10  1  0  0  0  0
 10 11  1  0  0  0  0
 11 12  1  0  0  0  0
 12 13  1  0  0  0  0
 13 14  1  0  0  0  0
 14 15  1  0  0  0  0
 15 16  2  0  0  0  0
 15 17  1  0  0  0  0
 12 17  1  0  0  0  0
 14 18  1  0  0  0  0
 18 19  2  0  0  0  0
 19 20  1  0  0  0  0
 20 21  2  0  0  0  0
 21 22  1  0  0  0  0
 21 23  1  0  0  0  0
 23 24  2  0  0  0  0
 18 24  1  0  0  0  0
 24 25  1  0  0  0  0
 12 26  1  0  0  0  0
 26 27  1  0  0  0  0
  9 27  1  0  0  0  0
M  END
> <ID>
CPD_1017

$$$$
CPD_1022
  Mrv1822 09091914012D          

 24 26  0  0  0  0            999 V2000
    5.3945    1.8414    0.0000 C   0  0  0  0  0  0  0  0  0  0  0  0
    4.9820    1.1270    0.0000 C   0  0  0  0  0  0  0  0  0  0  0  0
    4.1570    1.1270    0.0000 C   0  0  0  0  0  0  0  0  0  0  0  0
    3.7445    0.4125    0.0000 C   0  0  0  0  0  0  0  0  0  0  0  0
    4.1570   -0.3020    0.0000 O   0  0  0  0  0  0  0  0  0  0  0  0
    2.9195    0.4125    0.0000 N   0  0  0  0  0  0  0  0  0  0  0  0
    2.5070   -0.3020    0.0000 C   0  0  0  0  0  0  0  0  0  0  0  0
    1.6820   -0.3020    0.0000 C   0  0  0  0  0  0  0  0  0  0  0  0
    1.2695    0.4125    0.0000 C   0  0  0  0  0  0  0  0  0  0  0  0
    0.7846   -0.2549    0.0000 C   0  0  0  0  0  0  0  0  0  0  0  0
    0.0000   -0.0000    0.0000 N   0  0  0  0  0  0  0  0  0  0  0  0
   -0.0000    0.8250    0.0000 C   0  0  0  0  0  0  0  0  0  0  0  0
   -0.6674    1.3099    0.0000 O   0  0  0  0  0  0  0  0  0  0  0  0
    0.7846    1.0799    0.0000 O   0  0  0  0  0  0  0  0  0  0  0  0
   -0.6674   -0.4849    0.0000 C   0  0  0  0  0  0  0  0  0  0  0  0
   -0.5812   -1.3054    0.0000 C   0  0  0  0  0  0  0  0  0  0  0  0
   -1.2486   -1.7903    0.0000 C   0  0  0  0  0  0  0  0  0  0  0  0
   -2.0023   -1.4548    0.0000 C   0  0  0  0  0  0  0  0  0  0  0  0
   -2.6698   -1.9397    0.0000 Cl  0  0  0  0  0  0  0  0  0  0  0  0
   -2.0886   -0.6343    0.0000 C   0  0  0  0  0  0  0  0  0  0  0  0
   -1.4211   -0.1494    0.0000 C   0  0  0  0  0  0  0  0  0  0  0  0
   -1.5074    0.6711    0.0000 F   0  0  0  0  0  0  0  0  0  0  0  0
    1.6820    1.1270    0.0000 C   0  0  0  0  0  0  0  0  0  0  0  0
    2.5070    1.1270    0.0000 C   0  0  0  0  0  0  0  0  0  0  0  0
  1  2  1  0  0  0  0
  2  3  1  0  0  0  0
  3  4  1  0  0  0  0
  4  5  2  0  0  0  0
  4  6  1  0  0  0  0
  6  7  1  0  0  0  0
  7  8  1  0  0  0  0
  8  9  1  0  0  0  0
  9 10  1  0  0  0  0
 10 11  1  0  0  0  0
 11 12  1  0  0  0  0
 12 13  2  0  0  0  0
 12 14  1  0  0  0  0
  9 14  1  0  0  0  0
 11 15  1  0  0  0  0
 15 16  2  0  0  0  0
 16 17  1  0  0  0  0
 17 18  2  0  0  0  0
 18 19  1  0  0  0  0
 18 20  1  0  0  0  0
 20 21  2  0  0  0  0
 15 21  1  0  0  0  0
 21 22  1  0  0  0  0
  9 23  1  0  0  0  0
 23 24  1  0  0  0  0
  6 24  1  0  0  0  0
M  END
> <ID>
CPD_1022

$$$$
CPD_1027
  Mrv1822 09091914012D          

 26 29  0  0  0  0            999 V2000
    2.1434    1.2375    0.0000 O   0  0  0  0  0  0  0  0  0  0  0  0
    1.4289    0.8250    0.0000 C   0  0  0  0  0  0  0  0  0  0  0  0
    0.7145    1.2375    0.0000 N   0  0  0  0  0  0  0  0  0  0  0  0
    0.7145    2.0625    0.0000 C   0  0  0  0  0  0  0  0  0  0  0  0
   -0.0000    2.4750    0.0000 C   0  0  0  0  0  0  0  0  0  0  0  0
    0.0000    3.3000    0.0000 C   0  0  0  0  0  0  0  0  0  0  0  0
    0.7145    3.7125    0.0000 C   0  0  0  0  0  0  0  0  0  0  0  0
    0.7145    4.5375    0.0000 O   0  0  0  0  0  0  0  0  0  0  0  0
    1.4289    4.9500    0.0000 C   0  0  0  0  0  0  0  0  0  0  0  0
    1.6425    5.7469    0.0000 C   0  0  0  0  0  0  0  0  0  0  0  0
    2.4394    5.5334    0.0000 O   0  0  0  0  0  0  0  0  0  0  0  0
    2.2258    4.7365    0.0000 C   0  0  0  0  0  0  0  0  0  0  0  0
    1.4289    3.3000    0.0000 C   0  0  0  0  0  0  0  0  0  0  0  0
    1.4289    2.4750    0.0000 C   0  0  0  0  0  0  0  0  0  0  0  0
    1.4289    0.0000    0.0000 C   0  0  0  0  0  0  0  0  0  0  0  0
    2.1434   -0.4125    0.0000 C   0  0  0  0  0  0  0  0  0  0  0  0
    2.8579    0.0000    0.0000 C   0  0  0  0  0  0  0  0  0  0  0  0
    3.5724   -0.4125    0.0000 C   0  0  0  0  0  0  0  0  0  0  0  0
    3.5724   -1.2375    0.0000 C   0  0  0  0  0  0  0  0  0  0  0  0
    2.8579   -1.6500    0.0000 C   0  0  0  0  0  0  0  0  0  0  0  0
    2.1434   -1.2375    0.0000 N   0  0  0  0  0  0  0  0  0  0  0  0
    1.4289   -1.6500    0.0000 C   0  0  0  0  0  0  0  0  0  0  0  0
    1.4289   -2.4750    0.0000 O   0  0  0  0  0  0  0  0  0  0  0  0
    0.7145   -1.2375    0.0000 C   0  0  0  0  0  0  0  0  0  0  0  0
    0.7145   -0.4125    0.0000 C   0  0  0  0  0  0  0  0  0  0  0  0
    0.0000   -0.0000    0.0000 O   0  0  0  0  0  0  0  0  0  0  0  0
  1  2  2  0  0  0  0
  2  3  1  0  0  0  0
  3  4  1  0  0  0  0
  4  5  2  0  0  0  0
  5  6  1  0  0  0  0
  6  7  2  0  0  0  0
  7  8  1  0  0  0  0
  8  9  1  0  0  0  0
  9 10  1  0  0  0  0
 10 11  1  0  0  0  0
 11 12  1  0  0  0  0
  9 12  1  0  0  0  0
  7 13  1  0  0  0  0
 13 14  2  0  0  0  0
  4 14  1  0  0  0  0
  2 15  1  0  0  0  0
 15 16  2  0  0  0  0
 16 17  1  0  0  0  0
 17 18  1  0  0  0  0
 18 19  1  0  0  0  0
 19 20  1  0  0  0  0
 20 21  1  0  0  0  0
 16 21  1  0  0  0  0
 21 22  1  0  0  0  0
 22 23  2  0  0  0  0
 22 24  1  0  0  0  0
 24 25  1  0  0  0  0
 15 25  1  0  0  0  0
 25 26  2  0  0  0  0
M  END
> <ID>
CPD_1027

$$$$
CPD_1032
  Mrv1822 09091914012D          

 40 43  0  0  1  0            999 V2000
    6.4811  -10.2510    0.0000 C   0  0  0  0  0  0  0  0  0  0  0  0
    5.9410   -9.6273    0.0000 C   0  0  0  0  0  0  0  0  0  0  0  0
    6.5646   -9.0872    0.0000 C   0  0  0  0  0  0  0  0  0  0  0  0
    5.3173  -10.1674    0.0000 C   0  0  0  0  0  0  0  0  0  0  0  0
    5.4009   -9.0037    0.0000 O   0  0  0  0  0  0  0  0  0  0  0  0
    4.5908   -9.1596    0.0000 C   0  0  0  0  0  0  0  0  0  0  0  0
    4.3207   -9.9391    0.0000 O   0  0  0  0  0  0  0  0  0  0  0  0
    4.0507   -8.5359    0.0000 C   0  0  0  0  0  0  0  0  0  0  0  0
    3.2405   -8.6918    0.0000 C   0  0  0  0  0  0  0  0  0  0  0  0
    2.7004   -8.0682    0.0000 C   0  0  0  0  0  0  0  0  0  0  0  0
    2.9705   -7.2887    0.0000 C   0  0  0  0  0  0  0  0  0  0  0  0
    2.4304   -6.6650    0.0000 C   0  0  0  0  0  0  0  0  0  0  0  0
    2.7004   -5.8855    0.0000 C   0  0  2  0  0  0  0  0  0  0  0  0
    2.1604   -5.2618    0.0000 N   0  0  0  0  0  0  0  0  0  0  0  0
    1.3502   -5.4177    0.0000 C   0  0  0  0  0  0  0  0  0  0  0  0
    1.0802   -6.1973    0.0000 O   0  0  0  0  0  0  0  0  0  0  0  0
    0.8101   -4.7941    0.0000 O   0  0  0  0  0  0  0  0  0  0  0  0
    0.0000   -4.9500    0.0000 C   0  0  0  0  0  0  0  0  0  0  0  0
   -0.5401   -4.3264    0.0000 C   0  0  0  0  0  0  0  0  0  0  0  0
   -1.3502   -4.4823    0.0000 C   0  0  0  0  0  0  0  0  0  0  0  0
   -1.8903   -3.8586    0.0000 C   0  0  0  0  0  0  0  0  0  0  0  0
   -1.6203   -3.0791    0.0000 C   0  0  0  0  0  0  0  0  0  0  0  0
   -0.8101   -2.9232    0.0000 C   0  0  0  0  0  0  0  0  0  0  0  0
   -0.2700   -3.5468    0.0000 C   0  0  0  0  0  0  0  0  0  0  0  0
    3.5106   -5.7296    0.0000 C   0  0  0  0  0  0  0  0  0  0  0  0
    4.0507   -6.3532    0.0000 O   0  0  0  0  0  0  0  0  0  0  0  0
    3.7806   -4.9500    0.0000 N   0  0  0  0  0  0  0  0  0  0  0  0
    4.5908   -4.7941    0.0000 C   0  0  0  0  0  0  0  0  0  0  0  0
    4.8608   -4.0145    0.0000 C   0  0  0  0  0  0  0  0  0  0  0  0
    5.6709   -3.8586    0.0000 C   0  0  0  0  0  0  0  0  0  0  0  0
    6.2110   -4.4823    0.0000 C   0  0  0  0  0  0  0  0  0  0  0  0
    7.0212   -4.3264    0.0000 O   0  0  0  0  0  0  0  0  0  0  0  0
    7.5612   -4.9500    0.0000 C   0  0  0  0  0  0  0  0  0  0  0  0
    8.3841   -5.0091    0.0000 C   0  0  0  0  0  0  0  0  0  0  0  0
    8.3251   -5.8320    0.0000 O   0  0  0  0  0  0  0  0  0  0  0  0
    7.5022   -5.7729    0.0000 C   0  0  0  0  0  0  0  0  0  0  0  0
    5.9410   -5.2618    0.0000 C   0  0  0  0  0  0  0  0  0  0  0  0
    5.1308   -5.4177    0.0000 C   0  0  0  0  0  0  0  0  0  0  0  0
    3.7806   -7.1327    0.0000 C   0  0  0  0  0  0  0  0  0  0  0  0
    4.3207   -7.7564    0.0000 C   0  0  0  0  0  0  0  0  0  0  0  0
  1  2  1  0  0  0  0
  2  3  1  0  0  0  0
  2  4  1  0  0  0  0
  2  5  1  0  0  0  0
  5  6  1  0  0  0  0
  6  7  2  0  0  0  0
  6  8  1  0  0  0  0
  8  9  2  0  0  0  0
  9 10  1  0  0  0  0
 10 11  2  0  0  0  0
 11 12  1  0  0  0  0
 13 12  1  0  0  0  0
 13 14  1  6  0  0  0
 14 15  1  0  0  0  0
 15 16  2  0  0  0  0
 15 17  1  0  0  0  0
 17 18  1  0  0  0  0
 18 19  1  0  0  0  0
 19 20  2  0  0  0  0
 20 21  1  0  0  0  0
 21 22  2  0  0  0  0
 22 23  1  0  0  0  0
 23 24  2  0  0  0  0
 19 24  1  0  0  0  0
 13 25  1  0  0  0  0
 25 26  2  0  0  0  0
 25 27  1  0  0  0  0
 27 28  1  0  0  0  0
 28 29  2  0  0  0  0
 29 30  1  0  0  0  0
 30 31  2  0  0  0  0
 31 32  1  0  0  0  0
 32 33  1  0  0  0  0
 33 34  1  0  0  0  0
 34 35  1  0  0  0  0
 35 36  1  0  0  0  0
 33 36  1  0  0  0  0
 31 37  1  0  0  0  0
 37 38  2  0  0  0  0
 28 38  1  0  0  0  0
 11 39  1  0  0  0  0
 39 40  2  0  0  0  0
  8 40  1  0  0  0  0
M  END
> <ID>
CPD_1032

$$$$
CPD_1037
  Mrv1822 09091914012D          

 25 27  0  0  0  0            999 V2000
   -3.5724   -1.2375    0.0000 C   0  0  0  0  0  0  0  0  0  0  0  0
   -3.5724   -2.0625    0.0000 O   0  0  0  0  0  0  0  0  0  0  0  0
   -2.8579   -2.4750    0.0000 C   0  0  0  0  0  0  0  0  0  0  0  0
   -2.1434   -2.0625    0.0000 C   0  0  0  0  0  0  0  0  0  0  0  0
   -1.4289   -2.4750    0.0000 C   0  0  0  0  0  0  0  0  0  0  0  0
   -0.7145   -2.0625    0.0000 N   0  0  0  0  0  0  0  0  0  0  0  0
    0.0000   -2.4750    0.0000 C   0  0  0  0  0  0  0  0  0  0  0  0
    0.0000   -3.3000    0.0000 O   0  0  0  0  0  0  0  0  0  0  0  0
    0.7145   -2.0625    0.0000 C   0  0  0  0  0  0  0  0  0  0  0  0
    1.4289   -2.4750    0.0000 S   0  0  0  0  0  0  0  0  0  0  0  0
    2.1434   -2.0625    0.0000 C   0  0  0  0  0  0  0  0  0  0  0  0
    2.1434   -1.2375    0.0000 N   0  0  0  0  0  0  0  0  0  0  0  0
    2.8579   -0.8250    0.0000 C   0  0  0  0  0  0  0  0  0  0  0  0
    3.5724   -1.2375    0.0000 C   0  0  0  0  0  0  0  0  0  0  0  0
    3.5724   -2.0625    0.0000 C   0  0  0  0  0  0  0  0  0  0  0  0
    4.2868   -2.4750    0.0000 C   0  0  0  0  0  0  0  0  0  0  0  0
    2.8579   -2.4750    0.0000 N   0  0  0  0  0  0  0  0  0  0  0  0
   -1.4289   -3.3000    0.0000 C   0  0  0  0  0  0  0  0  0  0  0  0
   -2.1434   -3.7125    0.0000 C   0  0  0  0  0  0  0  0  0  0  0  0
   -2.8579   -3.3000    0.0000 C   0  0  0  0  0  0  0  0  0  0  0  0
   -3.5724   -3.7125    0.0000 O   0  0  0  0  0  0  0  0  0  0  0  0
   -4.2868   -3.3000    0.0000 C   0  0  0  0  0  0  0  0  0  0  0  0
   -5.0837   -3.5135    0.0000 C   0  0  0  0  0  0  0  0  0  0  0  0
   -5.2972   -2.7166    0.0000 O   0  0  0  0  0  0  0  0  0  0  0  0
   -4.5004   -2.5031    0.0000 C   0  0  0  0  0  0  0  0  0  0  0  0
  1  2  1  0  0  0  0
  2  3  1  0  0  0  0
  3  4  2  0  0  0  0
  4  5  1  0  0  0  0
  5  6  1  0  0  0  0
  6  7  1  0  0  0  0
  7  8  2  0  0  0  0
  7  9  1  0  0  0  0
  9 10  1  0  0  0  0
 10 11  1  0  0  0  0
 11 12  2  0  0  0  0
 12 13  1  0  0  0  0
 13 14  2  0  0  0  0
 14 15  1  0  0  0  0
 15 16  1  0  0  0  0
 15 17  2  0  0  0  0
 11 17  1  0  0  0  0
  5 18  2  0  0  0  0
 18 19  1  0  0  0  0
 19 20  2  0  0  0  0
  3 20  1  0  0  0  0
 20 21  1  0  0  0  0
 21 22  1  0  0  0  0
 22 23  1  0  0  0  0
 23 24  1  0  0  0  0
 24 25  1  0  0  0  0
 22 25  1  0  0  0  0
M  END
> <ID>
CPD_1037

$$$$
CPD_1042
  Mrv1822 09091914012D          

 27 30  0  0  0  0            999 V2000
   -3.9284    2.1599    0.0000 C   0  0  0  0  0  0  0  0  0  0  0  0
   -4.3409    1.4455    0.0000 O   0  0  0  0  0  0  0  0  0  0  0  0
   -3.9284    0.7310    0.0000 C   0  0  0  0  0  0  0  0  0  0  0  0
   -3.1034    0.7310    0.0000 C   0  0  0  0  0  0  0  0  0  0  0  0
   -2.6909    0.0165    0.0000 C   0  0  0  0  0  0  0  0  0  0  0  0
   -1.8659    0.0165    0.0000 N   0  0  0  0  0  0  0  0  0  0  0  0
   -1.4534   -0.6979    0.0000 C   0  0  0  0  0  0  0  0  0  0  0  0
   -1.8659   -1.4124    0.0000 O   0  0  0  0  0  0  0  0  0  0  0  0
   -0.6284   -0.6979    0.0000 C   0  0  0  0  0  0  0  0  0  0  0  0
   -0.1435   -1.3654    0.0000 C   0  0  0  0  0  0  0  0  0  0  0  0
   -0.3984   -2.1500    0.0000 Cl  0  0  0  0  0  0  0  0  0  0  0  0
    0.6411   -1.1104    0.0000 C   0  0  0  0  0  0  0  0  0  0  0  0
    0.6411   -0.2854    0.0000 C   0  0  0  0  0  0  0  0  0  0  0  0
   -0.1435   -0.0305    0.0000 S   0  0  0  0  0  0  0  0  0  0  0  0
    1.3556    0.1271    0.0000 C   0  0  0  0  0  0  0  0  0  0  0  0
    2.0701   -0.2854    0.0000 C   0  0  0  0  0  0  0  0  0  0  0  0
    2.7845    0.1271    0.0000 C   0  0  0  0  0  0  0  0  0  0  0  0
    2.0701   -1.1104    0.0000 C   0  0  0  0  0  0  0  0  0  0  0  0
    1.3556   -1.5229    0.0000 C   0  0  0  0  0  0  0  0  0  0  0  0
   -3.1034   -0.6979    0.0000 C   0  0  0  0  0  0  0  0  0  0  0  0
   -3.9284   -0.6979    0.0000 C   0  0  0  0  0  0  0  0  0  0  0  0
   -4.3409    0.0165    0.0000 C   0  0  0  0  0  0  0  0  0  0  0  0
   -5.1659    0.0165    0.0000 O   0  0  0  0  0  0  0  0  0  0  0  0
   -5.5784    0.7310    0.0000 C   0  0  0  0  0  0  0  0  0  0  0  0
   -6.3753    0.9445    0.0000 C   0  0  0  0  0  0  0  0  0  0  0  0
   -6.1618    1.7414    0.0000 O   0  0  0  0  0  0  0  0  0  0  0  0
   -5.3649    1.5279    0.0000 C   0  0  0  0  0  0  0  0  0  0  0  0
  1  2  1  0  0  0  0
  2  3  1  0  0  0  0
  3  4  2  0  0  0  0
  4  5  1  0  0  0  0
  5  6  1  0  0  0  0
  6  7  1  0  0  0  0
  7  8  2  0  0  0  0
  7  9  1  0  0  0  0
  9 10  2  0  0  0  0
 10 11  1  0  0  0  0
 10 12  1  0  0  0  0
 12 13  2  0  0  0  0
 13 14  1  0  0  0  0
  9 14  1  0  0  0  0
 13 15  1  0  0  0  0
 15 16  2  0  0  0  0
 16 17  1  0  0  0  0
 16 18  1  0  0  0  0
 18 19  2  0  0  0  0
 12 19  1  0  0  0  0
  5 20  2  0  0  0  0
 20 21  1  0  0  0  0
 21 22  2  0  0  0  0
  3 22  1  0  0  0  0
 22 23  1  0  0  0  0
 23 24  1  0  0  0  0
 24 25  1  0  0  0  0
 25 26  1  0  0  0  0
 26 27  1  0  0  0  0
 24 27  1  0  0  0  0
M  END
> <ID>
CPD_1042

$$$$
CPD_1047
  Mrv1822 09091914012D          

 27 29  0  0  0  0            999 V2000
   -3.5724   -1.2375    0.0000 C   0  0  0  0  0  0  0  0  0  0  0  0
   -3.5724   -2.0625    0.0000 O   0  0  0  0  0  0  0  0  0  0  0  0
   -2.8579   -2.4750    0.0000 C   0  0  0  0  0  0  0  0  0  0  0  0
   -2.1434   -2.0625    0.0000 C   0  0  0  0  0  0  0  0  0  0  0  0
   -1.4289   -2.4750    0.0000 C   0  0  0  0  0  0  0  0  0  0  0  0
   -0.7145   -2.0625    0.0000 N   0  0  0  0  0  0  0  0  0  0  0  0
    0.0000   -2.4750    0.0000 C   0  0  0  0  0  0  0  0  0  0  0  0
    0.0000   -3.3000    0.0000 O   0  0  0  0  0  0  0  0  0  0  0  0
    0.7145   -2.0625    0.0000 C   0  0  0  0  0  0  0  0  0  0  0  0
    1.4289   -2.4750    0.0000 C   0  0  0  0  0  0  0  0  0  0  0  0
    2.1434   -2.0625    0.0000 C   0  0  0  0  0  0  0  0  0  0  0  0
    2.1434   -1.2375    0.0000 C   0  0  0  0  0  0  0  0  0  0  0  0
    2.8579   -0.8250    0.0000 C   0  0  0  0  0  0  0  0  0  0  0  0
    2.8579    0.0000    0.0000 C   0  0  0  0  0  0  0  0  0  0  0  0
    3.5724   -1.2375    0.0000 C   0  0  0  0  0  0  0  0  0  0  0  0
    4.2868   -0.8250    0.0000 F   0  0  0  0  0  0  0  0  0  0  0  0
    3.5724   -2.0625    0.0000 C   0  0  0  0  0  0  0  0  0  0  0  0
    4.2868   -2.4750    0.0000 C   0  0  0  0  0  0  0  0  0  0  0  0
    2.8579   -2.4750    0.0000 C   0  0  0  0  0  0  0  0  0  0  0  0
   -1.4289   -3.3000    0.0000 C   0  0  0  0  0  0  0  0  0  0  0  0
   -2.1434   -3.7125    0.0000 C   0  0  0  0  0  0  0  0  0  0  0  0
   -2.8579   -3.3000    0.0000 C   0  0  0  0  0  0  0  0  0  0  0  0
   -3.5724   -3.7125    0.0000 O   0  0  0  0  0  0  0  0  0  0  0  0
   -4.2868   -3.3000    0.0000 C   0  0  0  0  0  0  0  0  0  0  0  0
   -5.0837   -3.5135    0.0000 C   0  0  0  0  0  0  0  0  0  0  0  0
   -5.2972   -2.7166    0.0000 O   0  0  0  0  0  0  0  0  0  0  0  0
   -4.5004   -2.5031    0.0000 C   0  0  0  0  0  0  0  0  0  0  0  0
  1  2  1  0  0  0  0
  2  3  1  0  0  0  0
  3  4  2  0  0  0  0
  4  5  1  0  0  0  0
  5  6  1  0  0  0  0
  6  7  1  0  0  0  0
  7  8  2  0  0  0  0
  7  9  1  0  0  0  0
  9 10  1  0  0  0  0
 10 11  1  0  0  0  0
 11 12  2  0  0  0  0
 12 13  1  0  0  0  0
 13 14  1  0  0  0  0
 13 15  2  0  0  0  0
 15 16  1  0  0  0  0
 15 17  1  0  0  0  0
 17 18  1  0  0  0  0
 17 19  2  0  0  0  0
 11 19  1  0  0  0  0
  5 20  2  0  0  0  0
 20 21  1  0  0  0  0
 21 22  2  0  0  0  0
  3 22  1  0  0  0  0
 22 23  1  0  0  0  0
 23 24  1  0  0  0  0
 24 25  1  0  0  0  0
 25 26  1  0  0  0  0
 26 27  1  0  0  0  0
 24 27  1  0  0  0  0
M  END
> <ID>
CPD_1047

$$$$
CPD_1052
  Mrv1822 09091914012D          

 31 33  0  0  1  0            999 V2000
   -3.9315   -7.9545    0.0000 C   0  0  0  0  0  0  0  0  0  0  0  0
   -3.7600   -7.1475    0.0000 C   0  0  0  0  0  0  0  0  0  0  0  0
   -4.3731   -6.5955    0.0000 N   0  0  0  0  0  0  0  0  0  0  0  0
   -5.1800   -6.7670    0.0000 N   0  0  0  0  0  0  0  0  0  0  0  0
   -5.5925   -6.0525    0.0000 C   0  0  0  0  0  0  0  0  0  0  0  0
   -5.0405   -5.4394    0.0000 C   0  0  0  0  0  0  0  0  0  0  0  0
   -5.2120   -4.6325    0.0000 Cl  0  0  0  0  0  0  0  0  0  0  0  0
   -4.2868   -5.7750    0.0000 C   0  0  0  0  0  0  0  0  0  0  0  0
   -3.5724   -5.3625    0.0000 C   0  0  0  0  0  0  0  0  0  0  0  0
   -2.8579   -5.7750    0.0000 N   0  0  0  0  0  0  0  0  0  0  0  0
   -2.1434   -5.3625    0.0000 C   0  0  0  0  0  0  0  0  0  0  0  0
   -2.1434   -4.5375    0.0000 O   0  0  0  0  0  0  0  0  0  0  0  0
   -1.4289   -5.7750    0.0000 C   0  0  1  0  0  0  0  0  0  0  0  0
   -1.4289   -6.6000    0.0000 C   0  0  0  0  0  0  0  0  0  0  0  0
   -0.7145   -5.3625    0.0000 O   0  0  0  0  0  0  0  0  0  0  0  0
    0.0000   -5.7750    0.0000 C   0  0  0  0  0  0  0  0  0  0  0  0
    0.7145   -5.3625    0.0000 C   0  0  0  0  0  0  0  0  0  0  0  0
    1.4289   -5.7750    0.0000 C   0  0  0  0  0  0  0  0  0  0  0  0
    1.4289   -6.6000    0.0000 C   0  0  0  0  0  0  0  0  0  0  0  0
    2.1434   -7.0125    0.0000 O   0  0  0  0  0  0  0  0  0  0  0  0
    2.8579   -6.6000    0.0000 C   0  0  0  0  0  0  0  0  0  0  0  0
    2.8579   -5.7750    0.0000 C   0  0  0  0  0  0  0  0  0  0  0  0
    2.1434   -5.3625    0.0000 F   0  0  0  0  0  0  0  0  0  0  0  0
    3.5724   -5.3625    0.0000 C   0  0  0  0  0  0  0  0  0  0  0  0
    4.2868   -5.7750    0.0000 C   0  0  0  0  0  0  0  0  0  0  0  0
    4.2868   -6.6000    0.0000 C   0  0  0  0  0  0  0  0  0  0  0  0
    3.5724   -7.0125    0.0000 C   0  0  0  0  0  0  0  0  0  0  0  0
    5.0013   -5.3625    0.0000 C   0  0  0  0  0  0  0  0  0  0  0  0
    5.7158   -4.9500    0.0000 N   0  0  0  0  0  0  0  0  0  0  0  0
    0.7145   -7.0125    0.0000 C   0  0  0  0  0  0  0  0  0  0  0  0
    0.0000   -6.6000    0.0000 C   0  0  0  0  0  0  0  0  0  0  0  0
  1  2  1  0  0  0  0
  2  3  1  0  0  0  0
  3  4  1  0  0  0  0
  4  5  2  0  0  0  0
  5  6  1  0  0  0  0
  6  7  1  0  0  0  0
  6  8  2  0  0  0  0
  3  8  1  0  0  0  0
  8  9  1  0  0  0  0
  9 10  1  0  0  0  0
 10 11  1  0  0  0  0
 11 12  2  0  0  0  0
 13 11  1  0  0  0  0
 13 14  1  6  0  0  0
 13 15  1  0  0  0  0
 15 16  1  0  0  0  0
 16 17  2  0  0  0  0
 17 18  1  0  0  0  0
 18 19  2  0  0  0  0
 19 20  1  0  0  0  0
 20 21  1  0  0  0  0
 21 22  2  0  0  0  0
 22 23  1  0  0  0  0
 22 24  1  0  0  0  0
 24 25  2  0  0  0  0
 25 26  1  0  0  0  0
 26 27  2  0  0  0  0
 21 27  1  0  0  0  0
 25 28  1  0  0  0  0
 28 29  3  0  0  0  0
 19 30  1  0  0  0  0
 30 31  2  0  0  0  0
 16 31  1  0  0  0  0
M  END
> <ID>
CPD_1052

$$$$
CPD_1057
  Mrv1822 09091914012D          

 26 27  0  0  1  0            999 V2000
    3.4656   -1.2991    0.0000 C   0  0  0  0  0  0  0  0  0  0  0  0
    2.7512   -1.7116    0.0000 C   0  0  0  0  0  0  0  0  0  0  0  0
    2.7512   -2.5366    0.0000 N   0  0  0  0  0  0  0  0  0  0  0  0
    3.4186   -3.0215    0.0000 N   0  0  0  0  0  0  0  0  0  0  0  0
    3.1637   -3.8062    0.0000 C   0  0  0  0  0  0  0  0  0  0  0  0
    2.3387   -3.8062    0.0000 C   0  0  0  0  0  0  0  0  0  0  0  0
    1.8538   -4.4736    0.0000 Cl  0  0  0  0  0  0  0  0  0  0  0  0
    2.0837   -3.0215    0.0000 C   0  0  0  0  0  0  0  0  0  0  0  0
    1.2991   -2.7666    0.0000 C   0  0  0  0  0  0  0  0  0  0  0  0
    1.1276   -1.9596    0.0000 N   0  0  0  0  0  0  0  0  0  0  0  0
    0.3430   -1.7047    0.0000 C   0  0  0  0  0  0  0  0  0  0  0  0
   -0.2701   -2.2567    0.0000 O   0  0  0  0  0  0  0  0  0  0  0  0
    0.1714   -0.8977    0.0000 C   0  0  2  0  0  0  0  0  0  0  0  0
   -0.6132   -0.6428    0.0000 C   0  0  0  0  0  0  0  0  0  0  0  0
   -0.7847    0.1642    0.0000 C   0  0  0  0  0  0  0  0  0  0  0  0
   -0.1716    0.7162    0.0000 N   0  0  0  0  0  0  0  0  0  0  0  0
    0.6130    0.4613    0.0000 C   0  0  0  0  0  0  0  0  0  0  0  0
    0.7845   -0.3457    0.0000 C   0  0  2  0  0  0  0  0  0  0  0  0
    1.5692   -0.6006    0.0000 C   0  0  0  0  0  0  0  0  0  0  0  0
   -0.3431    1.5232    0.0000 C   0  0  0  0  0  0  0  0  0  0  0  0
   -1.1278    1.7781    0.0000 O   0  0  0  0  0  0  0  0  0  0  0  0
    0.2700    2.0752    0.0000 O   0  0  0  0  0  0  0  0  0  0  0  0
    0.0984    2.8822    0.0000 C   0  0  0  0  0  0  0  0  0  0  0  0
   -0.0731    3.6892    0.0000 C   0  0  0  0  0  0  0  0  0  0  0  0
    0.9054    3.0537    0.0000 C   0  0  0  0  0  0  0  0  0  0  0  0
   -0.7085    2.7107    0.0000 C   0  0  0  0  0  0  0  0  0  0  0  0
  1  2  1  0  0  0  0
  2  3  1  0  0  0  0
  3  4  1  0  0  0  0
  4  5  2  0  0  0  0
  5  6  1  0  0  0  0
  6  7  1  0  0  0  0
  6  8  2  0  0  0  0
  3  8  1  0  0  0  0
  8  9  1  0  0  0  0
  9 10  1  0  0  0  0
 10 11  1  0  0  0  0
 11 12  2  0  0  0  0
 13 11  1  6  0  0  0
 13 14  1  0  0  0  0
 14 15  1  0  0  0  0
 15 16  1  0  0  0  0
 16 17  1  0  0  0  0
 18 17  1  0  0  0  0
 13 18  1  0  0  0  0
 18 19  1  6  0  0  0
 16 20  1  0  0  0  0
 20 21  2  0  0  0  0
 20 22  1  0  0  0  0
 22 23  1  0  0  0  0
 23 24  1  0  0  0  0
 23 25  1  0  0  0  0
 23 26  1  0  0  0  0
M  END
> <ID>
CPD_1057

$$$$
CPD_1062
  Mrv1822 09091914012D          

 25 26  0  0  0  0            999 V2000
    2.8579   -1.6500    0.0000 C   0  0  0  0  0  0  0  0  0  0  0  0
    2.8579   -2.4750    0.0000 C   0  0  0  0  0  0  0  0  0  0  0  0
    3.5724   -2.8875    0.0000 C   0  0  0  0  0  0  0  0  0  0  0  0
    3.5724   -3.7125    0.0000 C   0  0  0  0  0  0  0  0  0  0  0  0
    2.8579   -4.1250    0.0000 C   0  0  0  0  0  0  0  0  0  0  0  0
    2.8579   -4.9500    0.0000 C   0  0  0  0  0  0  0  0  0  0  0  0
    2.1434   -3.7125    0.0000 C   0  0  0  0  0  0  0  0  0  0  0  0
    2.1434   -2.8875    0.0000 C   0  0  0  0  0  0  0  0  0  0  0  0
    1.4289   -4.1250    0.0000 C   0  0  0  0  0  0  0  0  0  0  0  0
    1.4289   -4.9500    0.0000 N   0  0  0  0  0  0  0  0  0  0  0  0
    0.7145   -3.7125    0.0000 C   0  0  0  0  0  0  0  0  0  0  0  0
    0.7145   -2.8875    0.0000 O   0  0  0  0  0  0  0  0  0  0  0  0
    0.0000   -4.1250    0.0000 N   0  0  0  0  0  0  0  0  0  0  0  0
   -0.7145   -3.7125    0.0000 C   0  0  0  0  0  0  0  0  0  0  0  0
   -1.4289   -4.1250    0.0000 C   0  0  0  0  0  0  0  0  0  0  0  0
   -2.1434   -3.7125    0.0000 C   0  0  0  0  0  0  0  0  0  0  0  0
   -2.8579   -4.1250    0.0000 C   0  0  0  0  0  0  0  0  0  0  0  0
   -2.8579   -4.9500    0.0000 C   0  0  0  0  0  0  0  0  0  0  0  0
   -3.5724   -5.3625    0.0000 C   0  0  0  0  0  0  0  0  0  0  0  0
   -3.5724   -6.1875    0.0000 O   0  0  0  0  0  0  0  0  0  0  0  0
   -2.1434   -2.8875    0.0000 C   0  0  0  0  0  0  0  0  0  0  0  0
   -1.4289   -2.4750    0.0000 N   0  0  0  0  0  0  0  0  0  0  0  0
   -0.7145   -2.8875    0.0000 C   0  0  0  0  0  0  0  0  0  0  0  0
    0.0000   -2.4750    0.0000 C   0  0  0  0  0  0  0  0  0  0  0  0
    0.7145   -2.0625    0.0000 N   0  0  0  0  0  0  0  0  0  0  0  0
  1  2  1  0  0  0  0
  2  3  2  0  0  0  0
  3  4  1  0  0  0  0
  4  5  2  0  0  0  0
  5  6  1  0  0  0  0
  5  7  1  0  0  0  0
  7  8  2  0  0  0  0
  2  8  1  0  0  0  0
  7  9  1  0  0  0  0
  9 10  1  0  0  0  0
  9 11  1  0  0  0  0
 11 12  2  0  0  0  0
 11 13  1  0  0  0  0
 13 14  1  0  0  0  0
 14 15  2  0  0  0  0
 15 16  1  0  0  0  0
 16 17  1  0  0  0  0
 17 18  1  0  0  0  0
 18 19  1  0  0  0  0
 19 20  1  0  0  0  0
 16 21  2  0  0  0  0
 21 22  1  0  0  0  0
 22 23  2  0  0  0  0
 14 23  1  0  0  0  0
 23 24  1  0  0  0  0
 24 25  3  0  0  0  0
M  END
> <ID>
CPD_1062

$$$$
CPD_1067
  Mrv1822 09091914012D          

 31 33  0  0  0  0            999 V2000
    5.4957    2.3479    0.0000 C   0  0  0  0  0  0  0  0  0  0  0  0
    4.7812    1.9354    0.0000 C   0  0  0  0  0  0  0  0  0  0  0  0
    4.0668    2.3479    0.0000 O   0  0  0  0  0  0  0  0  0  0  0  0
    3.3523    1.9354    0.0000 C   0  0  0  0  0  0  0  0  0  0  0  0
    3.3523    1.1104    0.0000 C   0  0  0  0  0  0  0  0  0  0  0  0
    4.0668    0.6979    0.0000 C   0  0  0  0  0  0  0  0  0  0  0  0
    2.6378    0.6979    0.0000 C   0  0  0  0  0  0  0  0  0  0  0  0
    2.6378   -0.1271    0.0000 O   0  0  0  0  0  0  0  0  0  0  0  0
    3.3523   -0.5396    0.0000 C   0  0  0  0  0  0  0  0  0  0  0  0
    3.3523   -1.3646    0.0000 C   0  0  0  0  0  0  0  0  0  0  0  0
    1.9233    1.1104    0.0000 C   0  0  0  0  0  0  0  0  0  0  0  0
    1.1387    0.8555    0.0000 C   0  0  0  0  0  0  0  0  0  0  0  0
    0.6538    1.5229    0.0000 C   0  0  0  0  0  0  0  0  0  0  0  0
    1.1387    2.1904    0.0000 N   0  0  0  0  0  0  0  0  0  0  0  0
    1.9233    1.9354    0.0000 C   0  0  0  0  0  0  0  0  0  0  0  0
    2.6378    2.3479    0.0000 C   0  0  0  0  0  0  0  0  0  0  0  0
   -0.1712    1.5229    0.0000 C   0  0  0  0  0  0  0  0  0  0  0  0
   -0.5837    2.2374    0.0000 O   0  0  0  0  0  0  0  0  0  0  0  0
   -0.5837    0.8085    0.0000 N   0  0  0  0  0  0  0  0  0  0  0  0
   -1.4087    0.8085    0.0000 C   0  0  0  0  0  0  0  0  0  0  0  0
   -1.8212    0.0940    0.0000 C   0  0  0  0  0  0  0  0  0  0  0  0
   -2.6462    0.0940    0.0000 C   0  0  0  0  0  0  0  0  0  0  0  0
   -3.0587   -0.6205    0.0000 C   0  0  0  0  0  0  0  0  0  0  0  0
   -2.6462   -1.3349    0.0000 C   0  0  0  0  0  0  0  0  0  0  0  0
   -3.0587   -2.0494    0.0000 C   0  0  0  0  0  0  0  0  0  0  0  0
   -2.6462   -2.7639    0.0000 O   0  0  0  0  0  0  0  0  0  0  0  0
   -3.0587    0.8085    0.0000 C   0  0  0  0  0  0  0  0  0  0  0  0
   -2.6462    1.5229    0.0000 N   0  0  0  0  0  0  0  0  0  0  0  0
   -1.8212    1.5229    0.0000 C   0  0  0  0  0  0  0  0  0  0  0  0
   -1.4087    2.2374    0.0000 C   0  0  0  0  0  0  0  0  0  0  0  0
   -0.9962    2.9519    0.0000 N   0  0  0  0  0  0  0  0  0  0  0  0
  1  2  1  0  0  0  0
  2  3  1  0  0  0  0
  3  4  1  0  0  0  0
  4  5  2  0  0  0  0
  5  6  1  0  0  0  0
  5  7  1  0  0  0  0
  7  8  1  0  0  0  0
  8  9  1  0  0  0  0
  9 10  1  0  0  0  0
  7 11  2  0  0  0  0
 11 12  1  0  0  0  0
 12 13  2  0  0  0  0
 13 14  1  0  0  0  0
 14 15  1  0  0  0  0
 11 15  1  0  0  0  0
 15 16  2  0  0  0  0
  4 16  1  0  0  0  0
 13 17  1  0  0  0  0
 17 18  2  0  0  0  0
 17 19  1  0  0  0  0
 19 20  1  0  0  0  0
 20 21  2  0  0  0  0
 21 22  1  0  0  0  0
 22 23  1  0  0  0  0
 23 24  1  0  0  0  0
 24 25  1  0  0  0  0
 25 26  1  0  0  0  0
 22 27  2  0  0  0  0
 27 28  1  0  0  0  0
 28 29  2  0  0  0  0
 20 29  1  0  0  0  0
 29 30  1  0  0  0  0
 30 31  3  0  0  0  0
M  END
> <ID>
CPD_1067

$$$$
CPD_1072
  Mrv1822 09091914012D          

 29 31  0  0  0  0            999 V2000
   -0.7441    1.3480    0.0000 O   0  0  0  0  0  0  0  0  0  0  0  0
   -1.4586    0.9355    0.0000 C   0  0  0  0  0  0  0  0  0  0  0  0
   -1.4586    0.1105    0.0000 C   0  0  0  0  0  0  0  0  0  0  0  0
   -2.1730   -0.3020    0.0000 C   0  0  0  0  0  0  0  0  0  0  0  0
   -2.1730   -1.1270    0.0000 C   0  0  0  0  0  0  0  0  0  0  0  0
   -1.4586   -1.5395    0.0000 C   0  0  0  0  0  0  0  0  0  0  0  0
   -1.4586   -2.3645    0.0000 N   0  0  0  0  0  0  0  0  0  0  0  0
   -2.1730   -2.7770    0.0000 C   0  0  0  0  0  0  0  0  0  0  0  0
   -2.1730   -3.6020    0.0000 C   0  0  0  0  0  0  0  0  0  0  0  0
   -2.1730   -4.4270    0.0000 N   0  0  0  0  0  0  0  0  0  0  0  0
   -2.8875   -2.3645    0.0000 C   0  0  0  0  0  0  0  0  0  0  0  0
   -3.6020   -2.7770    0.0000 N   0  0  0  0  0  0  0  0  0  0  0  0
   -3.6020   -3.6020    0.0000 C   0  0  0  0  0  0  0  0  0  0  0  0
   -2.8875   -4.0145    0.0000 O   0  0  0  0  0  0  0  0  0  0  0  0
   -4.3164   -4.0145    0.0000 C   0  0  0  0  0  0  0  0  0  0  0  0
   -4.7289   -3.3000    0.0000 O   0  0  0  0  0  0  0  0  0  0  0  0
   -5.0309   -4.4270    0.0000 C   0  0  0  0  0  0  0  0  0  0  0  0
   -5.0309   -5.2520    0.0000 C   0  0  0  0  0  0  0  0  0  0  0  0
   -5.7454   -5.6645    0.0000 C   0  0  0  0  0  0  0  0  0  0  0  0
   -6.4599   -5.2520    0.0000 C   0  0  0  0  0  0  0  0  0  0  0  0
   -6.4599   -4.4270    0.0000 C   0  0  0  0  0  0  0  0  0  0  0  0
   -5.7454   -4.0145    0.0000 C   0  0  0  0  0  0  0  0  0  0  0  0
   -3.9039   -4.7289    0.0000 C   0  0  0  0  0  0  0  0  0  0  0  0
   -3.0789   -4.7289    0.0000 C   0  0  0  0  0  0  0  0  0  0  0  0
   -2.6664   -5.4434    0.0000 C   0  0  0  0  0  0  0  0  0  0  0  0
   -3.0789   -6.1579    0.0000 C   0  0  0  0  0  0  0  0  0  0  0  0
   -3.9039   -6.1579    0.0000 C   0  0  0  0  0  0  0  0  0  0  0  0
   -4.3164   -5.4434    0.0000 C   0  0  0  0  0  0  0  0  0  0  0  0
   -2.8875   -1.5395    0.0000 C   0  0  0  0  0  0  0  0  0  0  0  0
  1  2  1  0  0  0  0
  2  3  1  0  0  0  0
  3  4  1  0  0  0  0
  4  5  1  0  0  0  0
  5  6  2  0  0  0  0
  6  7  1  0  0  0  0
  7  8  2  0  0  0  0
  8  9  1  0  0  0  0
  9 10  3  0  0  0  0
  8 11  1  0  0  0  0
 11 12  1  0  0  0  0
 12 13  1  0  0  0  0
 13 14  2  0  0  0  0
 13 15  1  0  0  0  0
 15 16  1  0  0  0  0
 15 17  1  0  0  0  0
 17 18  2  0  0  0  0
 18 19  1  0  0  0  0
 19 20  2  0  0  0  0
 20 21  1  0  0  0  0
 21 22  2  0  0  0  0
 17 22  1  0  0  0  0
 15 23  1  0  0  0  0
 23 24  2  0  0  0  0
 24 25  1  0  0  0  0
 25 26  2  0  0  0  0
 26 27  1  0  0  0  0
 27 28  2  0  0  0  0
 23 28  1  0  0  0  0
 11 29  2  0  0  0  0
  5 29  1  0  0  0  0
M  END
> <ID>
CPD_1072

$$$$
CPD_1077
  Mrv1822 09091914012D          

 24 26  0  0  0  0            999 V2000
   -2.6909    0.0165    0.0000 C   0  0  0  0  0  0  0  0  0  0  0  0
   -1.8659    0.0165    0.0000 O   0  0  0  0  0  0  0  0  0  0  0  0
   -1.4534   -0.6979    0.0000 C   0  0  0  0  0  0  0  0  0  0  0  0
   -1.8659   -1.4124    0.0000 O   0  0  0  0  0  0  0  0  0  0  0  0
   -0.6284   -0.6979    0.0000 C   0  0  0  0  0  0  0  0  0  0  0  0
   -0.1435   -1.3654    0.0000 C   0  0  0  0  0  0  0  0  0  0  0  0
   -0.3984   -2.1500    0.0000 N   0  0  0  0  0  0  0  0  0  0  0  0
    0.1536   -2.7631    0.0000 C   0  0  0  0  0  0  0  0  0  0  0  0
    0.9606   -2.5916    0.0000 O   0  0  0  0  0  0  0  0  0  0  0  0
   -0.1014   -3.5477    0.0000 C   0  0  0  0  0  0  0  0  0  0  0  0
    0.4507   -4.1608    0.0000 C   0  0  0  0  0  0  0  0  0  0  0  0
    1.2577   -3.9893    0.0000 N   0  0  0  0  0  0  0  0  0  0  0  0
    0.1957   -4.9454    0.0000 C   0  0  0  0  0  0  0  0  0  0  0  0
   -0.6112   -5.1170    0.0000 C   0  0  0  0  0  0  0  0  0  0  0  0
   -1.1633   -4.5039    0.0000 C   0  0  0  0  0  0  0  0  0  0  0  0
   -0.9083   -3.7192    0.0000 C   0  0  0  0  0  0  0  0  0  0  0  0
    0.6411   -1.1104    0.0000 C   0  0  0  0  0  0  0  0  0  0  0  0
    0.6411   -0.2854    0.0000 C   0  0  0  0  0  0  0  0  0  0  0  0
   -0.1435   -0.0305    0.0000 S   0  0  0  0  0  0  0  0  0  0  0  0
    1.3556    0.1271    0.0000 C   0  0  0  0  0  0  0  0  0  0  0  0
    2.0701   -0.2854    0.0000 C   0  0  0  0  0  0  0  0  0  0  0  0
    2.0701   -1.1104    0.0000 C   0  0  0  0  0  0  0  0  0  0  0  0
    2.7845   -1.5229    0.0000 Br  0  0  0  0  0  0  0  0  0  0  0  0
    1.3556   -1.5229    0.0000 C   0  0  0  0  0  0  0  0  0  0  0  0
  1  2  1  0  0  0  0
  2  3  1  0  0  0  0
  3  4  2  0  0  0  0
  3  5  1  0  0  0  0
  5  6  2  0  0  0  0
  6  7  1  0  0  0  0
  7  8  1  0  0  0  0
  8  9  2  0  0  0  0
  8 10  1  0  0  0  0
 10 11  2  0  0  0  0
 11 12  1  0  0  0  0
 11 13  1  0  0  0  0
 13 14  2  0  0  0  0
 14 15  1  0  0  0  0
 15 16  2  0  0  0  0
 10 16  1  0  0  0  0
  6 17  1  0  0  0  0
 17 18  2  0  0  0  0
 18 19  1  0  0  0  0
  5 19  1  0  0  0  0
 18 20  1  0  0  0  0
 20 21  2  0  0  0  0
 21 22  1  0  0  0  0
 22 23  1  0  0  0  0
 22 24  2  0  0  0  0
 17 24  1  0  0  0  0
M  END
> <ID>
CPD_1077

$$$$
CPD_1082
  Mrv1822 09091914012D          

 18 19  0  0  0  0            999 V2000
   -2.6909    0.0165    0.0000 C   0  0  0  0  0  0  0  0  0  0  0  0
   -1.8659    0.0165    0.0000 O   0  0  0  0  0  0  0  0  0  0  0  0
   -1.4534   -0.6979    0.0000 C   0  0  0  0  0  0  0  0  0  0  0  0
   -1.8659   -1.4124    0.0000 O   0  0  0  0  0  0  0  0  0  0  0  0
   -0.6284   -0.6979    0.0000 C   0  0  0  0  0  0  0  0  0  0  0  0
   -0.1435   -1.3654    0.0000 C   0  0  0  0  0  0  0  0  0  0  0  0
   -0.3984   -2.1500    0.0000 N   0  0  0  0  0  0  0  0  0  0  0  0
    0.1536   -2.7631    0.0000 C   0  0  0  0  0  0  0  0  0  0  0  0
    0.9606   -2.5916    0.0000 C   0  0  0  0  0  0  0  0  0  0  0  0
   -0.1014   -3.5477    0.0000 O   0  0  0  0  0  0  0  0  0  0  0  0
    0.6411   -1.1104    0.0000 C   0  0  0  0  0  0  0  0  0  0  0  0
    0.6411   -0.2854    0.0000 C   0  0  0  0  0  0  0  0  0  0  0  0
   -0.1435   -0.0305    0.0000 S   0  0  0  0  0  0  0  0  0  0  0  0
    1.3556    0.1271    0.0000 C   0  0  0  0  0  0  0  0  0  0  0  0
    2.0701   -0.2854    0.0000 C   0  0  0  0  0  0  0  0  0  0  0  0
    2.0701   -1.1104    0.0000 C   0  0  0  0  0  0  0  0  0  0  0  0
    2.7845   -1.5229    0.0000 Br  0  0  0  0  0  0  0  0  0  0  0  0
    1.3556   -1.5229    0.0000 C   0  0  0  0  0  0  0  0  0  0  0  0
  1  2  1  0  0  0  0
  2  3  1  0  0  0  0
  3  4  2  0  0  0  0
  3  5  1  0  0  0  0
  5  6  2  0  0  0  0
  6  7  1  0  0  0  0
  7  8  1  0  0  0  0
  8  9  1  0  0  0  0
  8 10  2  0  0  0  0
  6 11  1  0  0  0  0
 11 12  2  0  0  0  0
 12 13  1  0  0  0  0
  5 13  1  0  0  0  0
 12 14  1  0  0  0  0
 14 15  2  0  0  0  0
 15 16  1  0  0  0  0
 16 17  1  0  0  0  0
 16 18  2  0  0  0  0
 11 18  1  0  0  0  0
M  END
> <ID>
CPD_1082

$$$$
CPD_1087
  Mrv1822 09091914012D          

 23 24  0  0  0  0            999 V2000
    0.7145   -0.4125    0.0000 C   0  0  0  0  0  0  0  0  0  0  0  0
    0.7145   -1.2375    0.0000 O   0  0  0  0  0  0  0  0  0  0  0  0
    1.4289   -1.6500    0.0000 C   0  0  0  0  0  0  0  0  0  0  0  0
    1.4289   -2.4750    0.0000 C   0  0  0  0  0  0  0  0  0  0  0  0
    2.1434   -2.8875    0.0000 N   0  0  0  0  0  0  0  0  0  0  0  0
    2.1434   -3.7125    0.0000 C   0  0  0  0  0  0  0  0  0  0  0  0
    2.8579   -4.1250    0.0000 N   0  0  0  0  0  0  0  0  0  0  0  0
    3.5724   -3.7125    0.0000 C   0  0  0  0  0  0  0  0  0  0  0  0
    3.5724   -2.8875    0.0000 O   0  0  0  0  0  0  0  0  0  0  0  0
    4.2868   -4.1250    0.0000 C   0  0  0  0  0  0  0  0  0  0  0  0
    5.0013   -3.7125    0.0000 C   0  0  0  0  0  0  0  0  0  0  0  0
    5.7158   -4.1250    0.0000 N   0  0  0  0  0  0  0  0  0  0  0  0
    5.7158   -4.9500    0.0000 C   0  0  0  0  0  0  0  0  0  0  0  0
    5.0013   -5.3625    0.0000 C   0  0  0  0  0  0  0  0  0  0  0  0
    4.2868   -4.9500    0.0000 N   0  0  0  0  0  0  0  0  0  0  0  0
    6.4302   -5.3625    0.0000 C   0  0  0  0  0  0  0  0  0  0  0  0
    7.1447   -5.7750    0.0000 C   0  0  0  0  0  0  0  0  0  0  0  0
    6.0177   -6.0770    0.0000 C   0  0  0  0  0  0  0  0  0  0  0  0
    6.8427   -4.6480    0.0000 C   0  0  0  0  0  0  0  0  0  0  0  0
    1.4289   -4.1250    0.0000 N   0  0  0  0  0  0  0  0  0  0  0  0
    0.7145   -3.7125    0.0000 C   0  0  0  0  0  0  0  0  0  0  0  0
    0.0000   -4.1250    0.0000 C   0  0  0  0  0  0  0  0  0  0  0  0
    0.7145   -2.8875    0.0000 C   0  0  0  0  0  0  0  0  0  0  0  0
  1  2  1  0  0  0  0
  2  3  1  0  0  0  0
  3  4  1  0  0  0  0
  4  5  2  0  0  0  0
  5  6  1  0  0  0  0
  6  7  1  0  0  0  0
  7  8  1  0  0  0  0
  8  9  2  0  0  0  0
  8 10  1  0  0  0  0
 10 11  2  0  0  0  0
 11 12  1  0  0  0  0
 12 13  2  0  0  0  0
 13 14  1  0  0  0  0
 14 15  2  0  0  0  0
 10 15  1  0  0  0  0
 13 16  1  0  0  0  0
 16 17  1  0  0  0  0
 16 18  1  0  0  0  0
 16 19  1  0  0  0  0
  6 20  2  0  0  0  0
 20 21  1  0  0  0  0
 21 22  1  0  0  0  0
 21 23  2  0  0  0  0
  4 23  1  0  0  0  0
M  END
> <ID>
CPD_1087

$$$$
CPD_1092
  Mrv1822 09091914012D          

 21 22  0  0  0  0            999 V2000
    0.7145   -0.4125    0.0000 C   0  0  0  0  0  0  0  0  0  0  0  0
    0.7145   -1.2375    0.0000 O   0  0  0  0  0  0  0  0  0  0  0  0
    1.4289   -1.6500    0.0000 C   0  0  0  0  0  0  0  0  0  0  0  0
    1.4289   -2.4750    0.0000 C   0  0  0  0  0  0  0  0  0  0  0  0
    2.1434   -2.8875    0.0000 N   0  0  0  0  0  0  0  0  0  0  0  0
    2.1434   -3.7125    0.0000 C   0  0  0  0  0  0  0  0  0  0  0  0
    2.8579   -4.1250    0.0000 N   0  0  0  0  0  0  0  0  0  0  0  0
    3.5724   -3.7125    0.0000 C   0  0  0  0  0  0  0  0  0  0  0  0
    3.5724   -2.8875    0.0000 O   0  0  0  0  0  0  0  0  0  0  0  0
    4.2868   -4.1250    0.0000 C   0  0  0  0  0  0  0  0  0  0  0  0
    5.0013   -3.7125    0.0000 C   0  0  0  0  0  0  0  0  0  0  0  0
    5.7158   -4.1250    0.0000 C   0  0  0  0  0  0  0  0  0  0  0  0
    5.7158   -4.9500    0.0000 C   0  0  0  0  0  0  0  0  0  0  0  0
    5.0013   -5.3625    0.0000 C   0  0  0  0  0  0  0  0  0  0  0  0
    5.0013   -6.1875    0.0000 C   0  0  0  0  0  0  0  0  0  0  0  0
    4.2868   -4.9500    0.0000 C   0  0  0  0  0  0  0  0  0  0  0  0
    3.5724   -5.3625    0.0000 N   0  0  0  0  0  0  0  0  0  0  0  0
    1.4289   -4.1250    0.0000 N   0  0  0  0  0  0  0  0  0  0  0  0
    0.7145   -3.7125    0.0000 C   0  0  0  0  0  0  0  0  0  0  0  0
    0.0000   -4.1250    0.0000 C   0  0  0  0  0  0  0  0  0  0  0  0
    0.7145   -2.8875    0.0000 C   0  0  0  0  0  0  0  0  0  0  0  0
  1  2  1  0  0  0  0
  2  3  1  0  0  0  0
  3  4  1  0  0  0  0
  4  5  2  0  0  0  0
  5  6  1  0  0  0  0
  6  7  1  0  0  0  0
  7  8  1  0  0  0  0
  8  9  2  0  0  0  0
  8 10  1  0  0  0  0
 10 11  2  0  0  0  0
 11 12  1  0  0  0  0
 12 13  2  0  0  0  0
 13 14  1  0  0  0  0
 14 15  1  0  0  0  0
 14 16  2  0  0  0  0
 10 16  1  0  0  0  0
 16 17  1  0  0  0  0
  6 18  2  0  0  0  0
 18 19  1  0  0  0  0
 19 20  1  0  0  0  0
 19 21  2  0  0  0  0
  4 21  1  0  0  0  0
M  END
> <ID>
CPD_1092

$$$$
CPD_1097
  Mrv1822 09091914012D          

 22 24  0  0  1  0            999 V2000
   -2.1319    0.0657    0.0000 O   0  0  0  0  0  0  0  0  0  0  0  0
   -2.1319   -0.7593    0.0000 C   0  0  1  0  0  0  0  0  0  0  0  0
   -1.4644   -1.2442    0.0000 C   0  0  0  0  0  0  0  0  0  0  0  0
   -1.7194   -2.0289    0.0000 C   0  0  0  0  0  0  0  0  0  0  0  0
   -2.5444   -2.0289    0.0000 C   0  0  2  0  0  0  0  0  0  0  0  0
   -2.7993   -1.2442    0.0000 C   0  0  0  0  0  0  0  0  0  0  0  0
   -3.0293   -2.6963    0.0000 N   0  0  0  0  0  0  0  0  0  0  0  0
   -2.6938   -3.4500    0.0000 C   0  0  0  0  0  0  0  0  0  0  0  0
   -1.8733   -3.5362    0.0000 O   0  0  0  0  0  0  0  0  0  0  0  0
   -3.1787   -4.1174    0.0000 C   0  0  0  0  0  0  0  0  0  0  0  0
   -3.4061   -4.9105    0.0000 C   0  0  0  0  0  0  0  0  0  0  0  0
   -4.2066   -5.1100    0.0000 C   0  0  0  0  0  0  0  0  0  0  0  0
   -4.7797   -4.5166    0.0000 C   0  0  0  0  0  0  0  0  0  0  0  0
   -4.5523   -3.7235    0.0000 C   0  0  0  0  0  0  0  0  0  0  0  0
   -3.7518   -3.5240    0.0000 C   0  0  0  0  0  0  0  0  0  0  0  0
   -2.4372   -4.4791    0.0000 C   0  0  0  0  0  0  0  0  0  0  0  0
   -1.7532   -4.0177    0.0000 C   0  0  0  0  0  0  0  0  0  0  0  0
   -1.0117   -4.3794    0.0000 C   0  0  0  0  0  0  0  0  0  0  0  0
   -0.9542   -5.2024    0.0000 C   0  0  0  0  0  0  0  0  0  0  0  0
   -0.2127   -5.5640    0.0000 F   0  0  0  0  0  0  0  0  0  0  0  0
   -1.6381   -5.6637    0.0000 C   0  0  0  0  0  0  0  0  0  0  0  0
   -2.3796   -5.3021    0.0000 C   0  0  0  0  0  0  0  0  0  0  0  0
  2  1  1  1  0  0  0
  2  3  1  0  0  0  0
  3  4  1  0  0  0  0
  5  4  1  0  0  0  0
  5  6  1  0  0  0  0
  2  6  1  0  0  0  0
  5  7  1  1  0  0  0
  7  8  1  0  0  0  0
  8  9  2  0  0  0  0
  8 10  1  0  0  0  0
 10 11  1  0  0  0  0
 11 12  1  0  0  0  0
 12 13  1  0  0  0  0
 13 14  1  0  0  0  0
 14 15  1  0  0  0  0
 10 15  1  0  0  0  0
 10 16  1  0  0  0  0
 16 17  2  0  0  0  0
 17 18  1  0  0  0  0
 18 19  2  0  0  0  0
 19 20  1  0  0  0  0
 19 21  1  0  0  0  0
 21 22  2  0  0  0  0
 16 22  1  0  0  0  0
M  END
> <ID>
CPD_1097

$$$$
CPD_1102
  Mrv1822 09091914012D          

 24 26  0  0  1  0            999 V2000
   -1.4289   -2.4750    0.0000 N   0  0  0  0  0  0  0  0  0  0  0  0
   -0.7145   -2.8875    0.0000 C   0  0  0  0  0  0  0  0  0  0  0  0
    0.0000   -2.4750    0.0000 C   0  0  0  0  0  0  0  0  0  0  0  0
    0.0000   -1.6500    0.0000 N   0  0  0  0  0  0  0  0  0  0  0  0
    0.7145   -1.2375    0.0000 C   0  0  0  0  0  0  0  0  0  0  0  0
    0.7145   -0.4125    0.0000 C   0  0  0  0  0  0  0  0  0  0  0  0
    0.0000   -0.0000    0.0000 C   0  0  0  0  0  0  0  0  0  0  0  0
    0.0000    0.8250    0.0000 C   0  0  0  0  0  0  0  0  0  0  0  0
    0.7145    1.2375    0.0000 C   0  0  0  0  0  0  0  0  0  0  0  0
    1.4289    0.8250    0.0000 C   0  0  0  0  0  0  0  0  0  0  0  0
    1.4289   -0.0000    0.0000 C   0  0  0  0  0  0  0  0  0  0  0  0
    0.7145   -2.8875    0.0000 C   0  0  0  0  0  0  0  0  0  0  0  0
    0.7145   -3.7125    0.0000 C   0  0  0  0  0  0  0  0  0  0  0  0
    0.0000   -4.1250    0.0000 C   0  0  0  0  0  0  0  0  0  0  0  0
   -0.7145   -3.7125    0.0000 C   0  0  0  0  0  0  0  0  0  0  0  0
    0.0000   -4.9500    0.0000 C   0  0  0  0  0  0  0  0  0  0  0  0
    0.7145   -5.3625    0.0000 O   0  0  0  0  0  0  0  0  0  0  0  0
   -0.7145   -5.3625    0.0000 N   0  0  0  0  0  0  0  0  0  0  0  0
   -0.7145   -6.1875    0.0000 C   0  0  2  0  0  0  0  0  0  0  0  0
   -0.0470   -6.6724    0.0000 C   0  0  0  0  0  0  0  0  0  0  0  0
   -0.3020   -7.4570    0.0000 C   0  0  0  0  0  0  0  0  0  0  0  0
   -1.1270   -7.4570    0.0000 C   0  0  2  0  0  0  0  0  0  0  0  0
   -1.6119   -8.1245    0.0000 O   0  0  0  0  0  0  0  0  0  0  0  0
   -1.3819   -6.6724    0.0000 C   0  0  0  0  0  0  0  0  0  0  0  0
  1  2  1  0  0  0  0
  2  3  2  0  0  0  0
  3  4  1  0  0  0  0
  4  5  1  0  0  0  0
  5  6  1  0  0  0  0
  6  7  2  0  0  0  0
  7  8  1  0  0  0  0
  8  9  2  0  0  0  0
  9 10  1  0  0  0  0
 10 11  2  0  0  0  0
  6 11  1  0  0  0  0
  3 12  1  0  0  0  0
 12 13  2  0  0  0  0
 13 14  1  0  0  0  0
 14 15  2  0  0  0  0
  2 15  1  0  0  0  0
 14 16  1  0  0  0  0
 16 17  2  0  0  0  0
 16 18  1  0  0  0  0
 19 18  1  6  0  0  0
 19 20  1  0  0  0  0
 20 21  1  0  0  0  0
 22 21  1  0  0  0  0
 22 23  1  6  0  0  0
 22 24  1  0  0  0  0
 19 24  1  0  0  0  0
M  END
> <ID>
CPD_1102

$$$$
CPD_1107
  Mrv1822 09091914012D          

 20 21  0  0  1  0            999 V2000
    0.0000   -2.4750    0.0000 C   0  0  0  0  0  0  0  0  0  0  0  0
    0.7145   -2.8875    0.0000 C   0  0  0  0  0  0  0  0  0  0  0  0
    1.4289   -2.4750    0.0000 C   0  0  0  0  0  0  0  0  0  0  0  0
    2.1434   -2.8875    0.0000 C   0  0  0  0  0  0  0  0  0  0  0  0
    2.8579   -2.4750    0.0000 O   0  0  0  0  0  0  0  0  0  0  0  0
    3.5724   -2.8875    0.0000 C   0  0  0  0  0  0  0  0  0  0  0  0
    4.2868   -2.4750    0.0000 C   0  0  0  0  0  0  0  0  0  0  0  0
    5.0013   -2.8875    0.0000 C   0  0  0  0  0  0  0  0  0  0  0  0
    5.0013   -3.7125    0.0000 C   0  0  0  0  0  0  0  0  0  0  0  0
    4.2868   -4.1250    0.0000 C   0  0  0  0  0  0  0  0  0  0  0  0
    3.5724   -3.7125    0.0000 C   0  0  0  0  0  0  0  0  0  0  0  0
    4.2868   -1.6500    0.0000 C   0  0  0  0  0  0  0  0  0  0  0  0
    3.5724   -1.2375    0.0000 O   0  0  0  0  0  0  0  0  0  0  0  0
    5.0013   -1.2375    0.0000 N   0  0  0  0  0  0  0  0  0  0  0  0
    5.0013   -0.4125    0.0000 C   0  0  2  0  0  0  0  0  0  0  0  0
    4.3339    0.0724    0.0000 C   0  0  0  0  0  0  0  0  0  0  0  0
    4.5888    0.8570    0.0000 C   0  0  0  0  0  0  0  0  0  0  0  0
    5.4138    0.8570    0.0000 C   0  0  2  0  0  0  0  0  0  0  0  0
    5.8987    1.5245    0.0000 O   0  0  0  0  0  0  0  0  0  0  0  0
    5.6687    0.0724    0.0000 C   0  0  0  0  0  0  0  0  0  0  0  0
  1  2  1  0  0  0  0
  2  3  1  0  0  0  0
  3  4  1  0  0  0  0
  4  5  1  0  0  0  0
  5  6  1  0  0  0  0
  6  7  2  0  0  0  0
  7  8  1  0  0  0  0
  8  9  2  0  0  0  0
  9 10  1  0  0  0  0
 10 11  2  0  0  0  0
  6 11  1  0  0  0  0
  7 12  1  0  0  0  0
 12 13  2  0  0  0  0
 12 14  1  0  0  0  0
 15 14  1  6  0  0  0
 15 16  1  0  0  0  0
 16 17  1  0  0  0  0
 18 17  1  0  0  0  0
 18 19  1  6  0  0  0
 18 20  1  0  0  0  0
 15 20  1  0  0  0  0
M  END
> <ID>
CPD_1107

$$$$
CPD_1112
  Mrv1822 09091914012D          

 21 22  0  0  1  0            999 V2000
    0.0000   -2.4750    0.0000 C   0  0  0  0  0  0  0  0  0  0  0  0
    0.7145   -2.0625    0.0000 N   0  0  0  0  0  0  0  0  0  0  0  0
    1.4289   -2.4750    0.0000 C   0  0  0  0  0  0  0  0  0  0  0  0
    1.4289   -3.3000    0.0000 C   0  0  0  0  0  0  0  0  0  0  0  0
    0.7145   -3.7125    0.0000 O   0  0  0  0  0  0  0  0  0  0  0  0
    2.1434   -3.7125    0.0000 N   0  0  0  0  0  0  0  0  0  0  0  0
    2.1434   -4.5375    0.0000 C   0  0  2  0  0  0  0  0  0  0  0  0
    2.8109   -5.0224    0.0000 C   0  0  0  0  0  0  0  0  0  0  0  0
    2.5559   -5.8070    0.0000 C   0  0  0  0  0  0  0  0  0  0  0  0
    1.7309   -5.8070    0.0000 C   0  0  2  0  0  0  0  0  0  0  0  0
    1.2460   -6.4745    0.0000 O   0  0  0  0  0  0  0  0  0  0  0  0
    1.4760   -5.0224    0.0000 C   0  0  0  0  0  0  0  0  0  0  0  0
    0.7145   -1.2375    0.0000 S   0  0  0  0  0  0  0  0  0  0  0  0
    1.5395   -1.2375    0.0000 O   0  0  0  0  0  0  0  0  0  0  0  0
   -0.1105   -1.2375    0.0000 O   0  0  0  0  0  0  0  0  0  0  0  0
    0.7145   -0.4125    0.0000 C   0  0  0  0  0  0  0  0  0  0  0  0
    0.0000    0.0000    0.0000 C   0  0  0  0  0  0  0  0  0  0  0  0
    0.0000    0.8250    0.0000 C   0  0  0  0  0  0  0  0  0  0  0  0
    0.7145    1.2375    0.0000 C   0  0  0  0  0  0  0  0  0  0  0  0
    1.4289    0.8250    0.0000 C   0  0  0  0  0  0  0  0  0  0  0  0
    1.4289    0.0000    0.0000 C   0  0  0  0  0  0  0  0  0  0  0  0
  1  2  1  0  0  0  0
  2  3  1  0  0  0  0
  3  4  1  0  0  0  0
  4  5  2  0  0  0  0
  4  6  1  0  0  0  0
  7  6  1  6  0  0  0
  7  8  1  0  0  0  0
  8  9  1  0  0  0  0
 10  9  1  0  0  0  0
 10 11  1  6  0  0  0
 10 12  1  0  0  0  0
  7 12  1  0  0  0  0
  2 13  1  0  0  0  0
 13 14  2  0  0  0  0
 13 15  2  0  0  0  0
 13 16  1  0  0  0  0
 16 17  2  0  0  0  0
 17 18  1  0  0  0  0
 18 19  2  0  0  0  0
 19 20  1  0  0  0  0
 20 21  2  0  0  0  0
 16 21  1  0  0  0  0
M  END
> <ID>
CPD_1112

$$$$
CPD_1117
  Mrv1822 09091914012D          

 29 31  0  0  1  0            999 V2000
    0.7145   -3.7125    0.0000 C   0  0  0  0  0  0  0  0  0  0  0  0
    1.4289   -4.1250    0.0000 C   0  0  0  0  0  0  0  0  0  0  0  0
    2.1434   -3.7125    0.0000 C   0  0  0  0  0  0  0  0  0  0  0  0
    2.8579   -4.1250    0.0000 C   0  0  0  0  0  0  0  0  0  0  0  0
    3.5724   -3.7125    0.0000 C   0  0  2  0  0  0  0  0  0  0  0  0
    3.5724   -2.8875    0.0000 N   0  0  0  0  0  0  0  0  0  0  0  0
    2.8579   -2.4750    0.0000 C   0  0  0  0  0  0  0  0  0  0  0  0
    2.1434   -2.8875    0.0000 C   0  0  0  0  0  0  0  0  0  0  0  0
    2.8579   -1.6500    0.0000 O   0  0  0  0  0  0  0  0  0  0  0  0
    4.2868   -4.1250    0.0000 C   0  0  0  0  0  0  0  0  0  0  0  0
    4.2868   -4.9500    0.0000 O   0  0  0  0  0  0  0  0  0  0  0  0
    5.0013   -3.7125    0.0000 N   0  0  0  0  0  0  0  0  0  0  0  0
    5.7158   -4.1250    0.0000 C   0  0  0  0  0  0  0  0  0  0  0  0
    6.4302   -3.7125    0.0000 C   0  0  0  0  0  0  0  0  0  0  0  0
    7.1447   -4.1250    0.0000 C   0  0  0  0  0  0  0  0  0  0  0  0
    7.1447   -4.9500    0.0000 C   0  0  0  0  0  0  0  0  0  0  0  0
    6.4302   -5.3625    0.0000 C   0  0  0  0  0  0  0  0  0  0  0  0
    5.7158   -4.9500    0.0000 C   0  0  0  0  0  0  0  0  0  0  0  0
    7.8592   -5.3625    0.0000 C   0  0  0  0  0  0  0  0  0  0  0  0
    8.6129   -5.0269    0.0000 N   0  0  0  0  0  0  0  0  0  0  0  0
    9.1649   -5.6400    0.0000 C   0  0  0  0  0  0  0  0  0  0  0  0
    9.9854   -5.5538    0.0000 C   0  0  0  0  0  0  0  0  0  0  0  0
   10.4703   -6.2212    0.0000 N   0  0  0  0  0  0  0  0  0  0  0  0
   11.2953   -6.2212    0.0000 C   0  0  0  0  0  0  0  0  0  0  0  0
   11.5502   -7.0059    0.0000 C   0  0  0  0  0  0  0  0  0  0  0  0
   10.8828   -7.4908    0.0000 C   0  0  0  0  0  0  0  0  0  0  0  0
   10.2154   -7.0059    0.0000 N   0  0  0  0  0  0  0  0  0  0  0  0
    8.7524   -6.3545    0.0000 N   0  0  0  0  0  0  0  0  0  0  0  0
    7.9454   -6.1830    0.0000 N   0  0  0  0  0  0  0  0  0  0  0  0
  1  2  1  0  0  0  0
  2  3  1  0  0  0  0
  3  4  1  0  0  0  0
  5  4  1  0  0  0  0
  5  6  1  6  0  0  0
  6  7  1  0  0  0  0
  7  8  1  0  0  0  0
  7  9  2  0  0  0  0
  5 10  1  0  0  0  0
 10 11  2  0  0  0  0
 10 12  1  0  0  0  0
 12 13  1  0  0  0  0
 13 14  2  0  0  0  0
 14 15  1  0  0  0  0
 15 16  2  0  0  0  0
 16 17  1  0  0  0  0
 17 18  2  0  0  0  0
 13 18  1  0  0  0  0
 16 19  1  0  0  0  0
 19 20  2  0  0  0  0
 20 21  1  0  0  0  0
 21 22  1  0  0  0  0
 22 23  1  0  0  0  0
 23 24  1  0  0  0  0
 24 25  2  0  0  0  0
 25 26  1  0  0  0  0
 26 27  2  0  0  0  0
 23 27  1  0  0  0  0
 21 28  2  0  0  0  0
 28 29  1  0  0  0  0
 19 29  1  0  0  0  0
M  END
> <ID>
CPD_1117

$$$$
CPD_1122
  Mrv1822 09091914012D          

 36 40  0  0  0  0            999 V2000
   -3.5724   11.7161    0.0000 C   0  0  0  0  0  0  0  0  0  0  0  0
   -2.8579   12.1286    0.0000 O   0  0  0  0  0  0  0  0  0  0  0  0
   -2.1434   11.7161    0.0000 C   0  0  0  0  0  0  0  0  0  0  0  0
   -1.4289   12.1286    0.0000 C   0  0  0  0  0  0  0  0  0  0  0  0
   -0.7145   11.7161    0.0000 C   0  0  0  0  0  0  0  0  0  0  0  0
   -0.7145   10.8911    0.0000 C   0  0  0  0  0  0  0  0  0  0  0  0
   -1.4289   10.4786    0.0000 C   0  0  0  0  0  0  0  0  0  0  0  0
   -2.1434   10.8911    0.0000 C   0  0  0  0  0  0  0  0  0  0  0  0
   -0.0000   10.4786    0.0000 C   0  0  0  0  0  0  0  0  0  0  0  0
    0.7145   10.8911    0.0000 O   0  0  0  0  0  0  0  0  0  0  0  0
   -0.0000    9.6536    0.0000 N   0  0  0  0  0  0  0  0  0  0  0  0
    0.7145    9.2411    0.0000 C   0  0  0  0  0  0  0  0  0  0  0  0
    0.7145    8.4161    0.0000 C   0  0  0  0  0  0  0  0  0  0  0  0
   -0.0000    8.0036    0.0000 C   0  0  0  0  0  0  0  0  0  0  0  0
   -0.7145    8.4161    0.0000 C   0  0  0  0  0  0  0  0  0  0  0  0
   -0.7145    9.2411    0.0000 C   0  0  0  0  0  0  0  0  0  0  0  0
   -0.0000    7.1786    0.0000 C   0  0  0  0  0  0  0  0  0  0  0  0
   -0.7145    6.7661    0.0000 O   0  0  0  0  0  0  0  0  0  0  0  0
    0.7145    6.7661    0.0000 N   0  0  0  0  0  0  0  0  0  0  0  0
    0.7145    5.9411    0.0000 C   0  0  0  0  0  0  0  0  0  0  0  0
    1.4289    5.5286    0.0000 C   0  0  0  0  0  0  0  0  0  0  0  0
    1.4289    4.7036    0.0000 C   0  0  0  0  0  0  0  0  0  0  0  0
    0.7145    4.2911    0.0000 C   0  0  0  0  0  0  0  0  0  0  0  0
    0.0000    4.7036    0.0000 C   0  0  0  0  0  0  0  0  0  0  0  0
   -0.0000    5.5286    0.0000 C   0  0  0  0  0  0  0  0  0  0  0  0
    0.7145    3.4661    0.0000 C   0  0  0  0  0  0  0  0  0  0  0  0
    1.3819    2.9812    0.0000 N   0  0  0  0  0  0  0  0  0  0  0  0
    1.1270    2.1965    0.0000 C   0  0  0  0  0  0  0  0  0  0  0  0
    1.6119    1.5291    0.0000 C   0  0  0  0  0  0  0  0  0  0  0  0
    1.2763    0.7754    0.0000 N   0  0  0  0  0  0  0  0  0  0  0  0
    1.6888    0.0609    0.0000 C   0  0  0  0  0  0  0  0  0  0  0  0
    1.1368   -0.5522    0.0000 C   0  0  0  0  0  0  0  0  0  0  0  0
    0.3831   -0.2166    0.0000 C   0  0  0  0  0  0  0  0  0  0  0  0
    0.4694    0.6039    0.0000 N   0  0  0  0  0  0  0  0  0  0  0  0
    0.3020    2.1965    0.0000 N   0  0  0  0  0  0  0  0  0  0  0  0
    0.0470    2.9812    0.0000 N   0  0  0  0  0  0  0  0  0  0  0  0
  1  2  1  0  0  0  0
  2  3  1  0  0  0  0
  3  4  2  0  0  0  0
  4  5  1  0  0  0  0
  5  6  2  0  0  0  0
  6  7  1  0  0  0  0
  7  8  2  0  0  0  0
  3  8  1  0  0  0  0
  6  9  1  0  0  0  0
  9 10  2  0  0  0  0
  9 11  1  0  0  0  0
 11 12  1  0  0  0  0
 12 13  1  0  0  0  0
 13 14  1  0  0  0  0
 14 15  1  0  0  0  0
 15 16  1  0  0  0  0
 11 16  1  0  0  0  0
 14 17  1  0  0  0  0
 17 18  2  0  0  0  0
 17 19  1  0  0  0  0
 19 20  1  0  0  0  0
 20 21  2  0  0  0  0
 21 22  1  0  0  0  0
 22 23  2  0  0  0  0
 23 24  1  0  0  0  0
 24 25  2  0  0  0  0
 20 25  1  0  0  0  0
 23 26  1  0  0  0  0
 26 27  2  0  0  0  0
 27 28  1  0  0  0  0
 28 29  1  0  0  0  0
 29 30  1  0  0  0  0
 30 31  1  0  0  0  0
 31 32  2  0  0  0  0
 32 33  1  0  0  0  0
 33 34  2  0  0  0  0
 30 34  1  0  0  0  0
 28 35  2  0  0  0  0
 35 36  1  0  0  0  0
 26 36  1  0  0  0  0
M  END
> <ID>
CPD_1122

$$$$
CPD_1127
  Mrv1822 09091914012D          

 31 35  0  0  0  0            999 V2000
   -2.1434   -0.4125    0.0000 O   0  0  0  0  0  0  0  0  0  0  0  0
   -2.1434   -1.2375    0.0000 C   0  0  0  0  0  0  0  0  0  0  0  0
   -1.4289   -1.6500    0.0000 C   0  0  0  0  0  0  0  0  0  0  0  0
   -0.7145   -1.2375    0.0000 C   0  0  0  0  0  0  0  0  0  0  0  0
    0.0000   -1.6500    0.0000 N   0  0  0  0  0  0  0  0  0  0  0  0
    0.7145   -1.2375    0.0000 C   0  0  0  0  0  0  0  0  0  0  0  0
    0.7145   -0.4125    0.0000 C   0  0  0  0  0  0  0  0  0  0  0  0
    0.0000   -0.0000    0.0000 C   0  0  0  0  0  0  0  0  0  0  0  0
   -0.7145   -0.4125    0.0000 C   0  0  0  0  0  0  0  0  0  0  0  0
    1.4289   -0.0000    0.0000 N   0  0  0  0  0  0  0  0  0  0  0  0
    2.1434   -0.4125    0.0000 C   0  0  0  0  0  0  0  0  0  0  0  0
    2.1434   -1.2375    0.0000 C   0  0  0  0  0  0  0  0  0  0  0  0
    1.4289   -1.6500    0.0000 C   0  0  0  0  0  0  0  0  0  0  0  0
   -2.8579   -1.6500    0.0000 N   0  0  0  0  0  0  0  0  0  0  0  0
   -3.5724   -1.2375    0.0000 C   0  0  0  0  0  0  0  0  0  0  0  0
   -4.2868   -1.6500    0.0000 C   0  0  0  0  0  0  0  0  0  0  0  0
   -5.0013   -1.2375    0.0000 C   0  0  0  0  0  0  0  0  0  0  0  0
   -5.0013   -0.4125    0.0000 C   0  0  0  0  0  0  0  0  0  0  0  0
   -4.2868    0.0000    0.0000 C   0  0  0  0  0  0  0  0  0  0  0  0
   -3.5724   -0.4125    0.0000 C   0  0  0  0  0  0  0  0  0  0  0  0
   -5.7158    0.0000    0.0000 C   0  0  0  0  0  0  0  0  0  0  0  0
   -6.4694   -0.3356    0.0000 N   0  0  0  0  0  0  0  0  0  0  0  0
   -7.0215    0.2775    0.0000 C   0  0  0  0  0  0  0  0  0  0  0  0
   -7.8420    0.1913    0.0000 C   0  0  0  0  0  0  0  0  0  0  0  0
   -8.3269    0.8587    0.0000 N   0  0  0  0  0  0  0  0  0  0  0  0
   -9.1519    0.8587    0.0000 C   0  0  0  0  0  0  0  0  0  0  0  0
   -9.4068    1.6434    0.0000 C   0  0  0  0  0  0  0  0  0  0  0  0
   -8.7394    2.1283    0.0000 C   0  0  0  0  0  0  0  0  0  0  0  0
   -8.0719    1.6434    0.0000 N   0  0  0  0  0  0  0  0  0  0  0  0
   -6.6090    0.9920    0.0000 N   0  0  0  0  0  0  0  0  0  0  0  0
   -5.8020    0.8205    0.0000 N   0  0  0  0  0  0  0  0  0  0  0  0
  1  2  2  0  0  0  0
  2  3  1  0  0  0  0
  3  4  1  0  0  0  0
  4  5  2  0  0  0  0
  5  6  1  0  0  0  0
  6  7  2  0  0  0  0
  7  8  1  0  0  0  0
  8  9  2  0  0  0  0
  4  9  1  0  0  0  0
  7 10  1  0  0  0  0
 10 11  2  0  0  0  0
 11 12  1  0  0  0  0
 12 13  2  0  0  0  0
  6 13  1  0  0  0  0
  2 14  1  0  0  0  0
 14 15  1  0  0  0  0
 15 16  2  0  0  0  0
 16 17  1  0  0  0  0
 17 18  2  0  0  0  0
 18 19  1  0  0  0  0
 19 20  2  0  0  0  0
 15 20  1  0  0  0  0
 18 21  1  0  0  0  0
 21 22  2  0  0  0  0
 22 23  1  0  0  0  0
 23 24  1  0  0  0  0
 24 25  1  0  0  0  0
 25 26  1  0  0  0  0
 26 27  2  0  0  0  0
 27 28  1  0  0  0  0
 28 29  2  0  0  0  0
 25 29  1  0  0  0  0
 23 30  2  0  0  0  0
 30 31  1  0  0  0  0
 21 31  1  0  0  0  0
M  END
> <ID>
CPD_1127

$$$$
CPD_1132
  Mrv1822 09091914012D          

 30 34  0  0  0  0            999 V2000
    3.2789    2.0625    0.0000 Br  0  0  0  0  0  0  0  0  0  0  0  0
    3.2789    1.2375    0.0000 C   0  0  0  0  0  0  0  0  0  0  0  0
    3.9934    0.8250    0.0000 C   0  0  0  0  0  0  0  0  0  0  0  0
    3.9934    0.0000    0.0000 C   0  0  0  0  0  0  0  0  0  0  0  0
    3.2789   -0.4125    0.0000 C   0  0  0  0  0  0  0  0  0  0  0  0
    2.5645    0.0000    0.0000 C   0  0  0  0  0  0  0  0  0  0  0  0
    2.5645    0.8250    0.0000 C   0  0  0  0  0  0  0  0  0  0  0  0
    1.7798    1.0799    0.0000 C   0  0  0  0  0  0  0  0  0  0  0  0
    1.2949    0.4125    0.0000 C   0  0  0  0  0  0  0  0  0  0  0  0
    1.7798   -0.2549    0.0000 N   0  0  0  0  0  0  0  0  0  0  0  0
    4.7079   -0.4125    0.0000 C   0  0  0  0  0  0  0  0  0  0  0  0
    4.7079   -1.2375    0.0000 O   0  0  0  0  0  0  0  0  0  0  0  0
    5.4223   -0.0000    0.0000 N   0  0  0  0  0  0  0  0  0  0  0  0
    6.1368   -0.4125    0.0000 C   0  0  0  0  0  0  0  0  0  0  0  0
    6.8513   -0.0000    0.0000 C   0  0  0  0  0  0  0  0  0  0  0  0
    7.5658   -0.4125    0.0000 C   0  0  0  0  0  0  0  0  0  0  0  0
    7.5658   -1.2375    0.0000 C   0  0  0  0  0  0  0  0  0  0  0  0
    6.8513   -1.6500    0.0000 C   0  0  0  0  0  0  0  0  0  0  0  0
    6.1368   -1.2375    0.0000 C   0  0  0  0  0  0  0  0  0  0  0  0
    8.2802   -1.6500    0.0000 C   0  0  0  0  0  0  0  0  0  0  0  0
    9.0339   -1.3144    0.0000 N   0  0  0  0  0  0  0  0  0  0  0  0
    9.5859   -1.9275    0.0000 C   0  0  0  0  0  0  0  0  0  0  0  0
   10.4064   -1.8413    0.0000 C   0  0  0  0  0  0  0  0  0  0  0  0
   10.8913   -2.5087    0.0000 N   0  0  0  0  0  0  0  0  0  0  0  0
   11.7163   -2.5087    0.0000 C   0  0  0  0  0  0  0  0  0  0  0  0
   11.9713   -3.2934    0.0000 C   0  0  0  0  0  0  0  0  0  0  0  0
   11.3038   -3.7783    0.0000 C   0  0  0  0  0  0  0  0  0  0  0  0
   10.6364   -3.2934    0.0000 N   0  0  0  0  0  0  0  0  0  0  0  0
    9.1734   -2.6420    0.0000 N   0  0  0  0  0  0  0  0  0  0  0  0
    8.3665   -2.4705    0.0000 N   0  0  0  0  0  0  0  0  0  0  0  0
  1  2  1  0  0  0  0
  2  3  2  0  0  0  0
  3  4  1  0  0  0  0
  4  5  2  0  0  0  0
  5  6  1  0  0  0  0
  6  7  2  0  0  0  0
  2  7  1  0  0  0  0
  7  8  1  0  0  0  0
  8  9  2  0  0  0  0
  9 10  1  0  0  0  0
  6 10  1  0  0  0  0
  4 11  1  0  0  0  0
 11 12  2  0  0  0  0
 11 13  1  0  0  0  0
 13 14  1  0  0  0  0
 14 15  2  0  0  0  0
 15 16  1  0  0  0  0
 16 17  2  0  0  0  0
 17 18  1  0  0  0  0
 18 19  2  0  0  0  0
 14 19  1  0  0  0  0
 17 20  1  0  0  0  0
 20 21  2  0  0  0  0
 21 22  1  0  0  0  0
 22 23  1  0  0  0  0
 23 24  1  0  0  0  0
 24 25  1  0  0  0  0
 25 26  2  0  0  0  0
 26 27  1  0  0  0  0
 27 28  2  0  0  0  0
 24 28  1  0  0  0  0
 22 29  2  0  0  0  0
 29 30  1  0  0  0  0
 20 30  1  0  0  0  0
M  END
> <ID>
CPD_1132

$$$$
CPD_1137
  Mrv1822 09091914012D          

 41 46  0  0  0  0            999 V2000
   -2.8579   -4.9500    0.0000 C   0  0  0  0  0  0  0  0  0  0  0  0
   -2.8579   -4.1250    0.0000 O   0  0  0  0  0  0  0  0  0  0  0  0
   -2.1434   -3.7125    0.0000 C   0  0  0  0  0  0  0  0  0  0  0  0
   -2.1434   -2.8875    0.0000 C   0  0  0  0  0  0  0  0  0  0  0  0
   -1.4289   -2.4750    0.0000 C   0  0  0  0  0  0  0  0  0  0  0  0
   -0.7145   -2.8875    0.0000 C   0  0  0  0  0  0  0  0  0  0  0  0
    0.0000   -2.4750    0.0000 C   0  0  0  0  0  0  0  0  0  0  0  0
    0.0000   -1.6500    0.0000 C   0  0  0  0  0  0  0  0  0  0  0  0
    0.7145   -1.2375    0.0000 N   0  0  0  0  0  0  0  0  0  0  0  0
    0.7145   -0.4125    0.0000 C   0  0  0  0  0  0  0  0  0  0  0  0
    1.4289    0.0000    0.0000 C   0  0  0  0  0  0  0  0  0  0  0  0
    1.4289    0.8250    0.0000 C   0  0  0  0  0  0  0  0  0  0  0  0
    2.1434    1.2375    0.0000 O   0  0  0  0  0  0  0  0  0  0  0  0
    0.7145    1.2375    0.0000 N   0  0  0  0  0  0  0  0  0  0  0  0
    0.7145    2.0625    0.0000 C   0  0  0  0  0  0  0  0  0  0  0  0
    0.0000    2.4750    0.0000 C   0  0  0  0  0  0  0  0  0  0  0  0
    0.0000    3.3000    0.0000 C   0  0  0  0  0  0  0  0  0  0  0  0
    0.7145    3.7125    0.0000 C   0  0  0  0  0  0  0  0  0  0  0  0
    1.4289    3.3000    0.0000 C   0  0  0  0  0  0  0  0  0  0  0  0
    1.4289    2.4750    0.0000 C   0  0  0  0  0  0  0  0  0  0  0  0
    0.7145    4.5375    0.0000 C   0  0  0  0  0  0  0  0  0  0  0  0
    0.0470    5.0224    0.0000 N   0  0  0  0  0  0  0  0  0  0  0  0
    0.3020    5.8070    0.0000 C   0  0  0  0  0  0  0  0  0  0  0  0
   -0.1830    6.4745    0.0000 C   0  0  0  0  0  0  0  0  0  0  0  0
    0.1526    7.2282    0.0000 N   0  0  0  0  0  0  0  0  0  0  0  0
   -0.2599    7.9426    0.0000 C   0  0  0  0  0  0  0  0  0  0  0  0
    0.2921    8.5557    0.0000 C   0  0  0  0  0  0  0  0  0  0  0  0
    1.0458    8.2202    0.0000 C   0  0  0  0  0  0  0  0  0  0  0  0
    0.9596    7.3997    0.0000 N   0  0  0  0  0  0  0  0  0  0  0  0
    1.1270    5.8070    0.0000 N   0  0  0  0  0  0  0  0  0  0  0  0
    1.3819    5.0224    0.0000 N   0  0  0  0  0  0  0  0  0  0  0  0
    2.1434   -0.4125    0.0000 C   0  0  0  0  0  0  0  0  0  0  0  0
    2.8579    0.0000    0.0000 C   0  0  0  0  0  0  0  0  0  0  0  0
    3.5724   -0.4125    0.0000 C   0  0  0  0  0  0  0  0  0  0  0  0
    3.5724   -1.2375    0.0000 C   0  0  0  0  0  0  0  0  0  0  0  0
    2.8579   -1.6500    0.0000 C   0  0  0  0  0  0  0  0  0  0  0  0
    2.1434   -1.2375    0.0000 C   0  0  0  0  0  0  0  0  0  0  0  0
    1.4289   -1.6500    0.0000 C   0  0  0  0  0  0  0  0  0  0  0  0
    1.4289   -2.4750    0.0000 O   0  0  0  0  0  0  0  0  0  0  0  0
   -0.7145   -3.7125    0.0000 C   0  0  0  0  0  0  0  0  0  0  0  0
   -1.4289   -4.1250    0.0000 C   0  0  0  0  0  0  0  0  0  0  0  0
  1  2  1  0  0  0  0
  2  3  1  0  0  0  0
  3  4  2  0  0  0  0
  4  5  1  0  0  0  0
  5  6  2  0  0  0  0
  6  7  1  0  0  0  0
  7  8  1  0  0  0  0
  8  9  1  0  0  0  0
  9 10  1  0  0  0  0
 10 11  2  0  0  0  0
 11 12  1  0  0  0  0
 12 13  2  0  0  0  0
 12 14  1  0  0  0  0
 14 15  1  0  0  0  0
 15 16  2  0  0  0  0
 16 17  1  0  0  0  0
 17 18  2  0  0  0  0
 18 19  1  0  0  0  0
 19 20  2  0  0  0  0
 15 20  1  0  0  0  0
 18 21  1  0  0  0  0
 21 22  2  0  0  0  0
 22 23  1  0  0  0  0
 23 24  1  0  0  0  0
 24 25  1  0  0  0  0
 25 26  1  0  0  0  0
 26 27  2  0  0  0  0
 27 28  1  0  0  0  0
 28 29  2  0  0  0  0
 25 29  1  0  0  0  0
 23 30  2  0  0  0  0
 30 31  1  0  0  0  0
 21 31  1  0  0  0  0
 11 32  1  0  0  0  0
 32 33  2  0  0  0  0
 33 34  1  0  0  0  0
 34 35  2  0  0  0  0
 35 36  1  0  0  0  0
 36 37  2  0  0  0  0
 32 37  1  0  0  0  0
 37 38  1  0  0  0  0
  9 38  1  0  0  0  0
 38 39  2  0  0  0  0
  6 40  1  0  0  0  0
 40 41  2  0  0  0  0
  3 41  1  0  0  0  0
M  END
> <ID>
CPD_1137

$$$$
CPD_1142
  Mrv1822 09091914012D          

 27 28  0  0  0  0            999 V2000
    1.4289   -0.0000    0.0000 C   0  0  0  0  0  0  0  0  0  0  0  0
    0.7145   -0.4125    0.0000 C   0  0  0  0  0  0  0  0  0  0  0  0
    0.7145   -1.2375    0.0000 O   0  0  0  0  0  0  0  0  0  0  0  0
    0.0000   -1.6500    0.0000 C   0  0  0  0  0  0  0  0  0  0  0  0
   -0.7145   -1.2375    0.0000 O   0  0  0  0  0  0  0  0  0  0  0  0
    0.0000   -2.4750    0.0000 C   0  0  0  0  0  0  0  0  0  0  0  0
    0.7145   -2.8875    0.0000 C   0  0  0  0  0  0  0  0  0  0  0  0
    1.4289   -2.4750    0.0000 C   0  0  0  0  0  0  0  0  0  0  0  0
    0.7145   -3.7125    0.0000 N   0  0  0  0  0  0  0  0  0  0  0  0
    0.0000   -4.1250    0.0000 C   0  0  0  0  0  0  0  0  0  0  0  0
    0.0000   -4.9500    0.0000 C   0  0  0  0  0  0  0  0  0  0  0  0
   -0.7145   -3.7125    0.0000 C   0  0  0  0  0  0  0  0  0  0  0  0
   -0.7145   -2.8875    0.0000 C   0  0  0  0  0  0  0  0  0  0  0  0
   -1.4289   -4.1250    0.0000 C   0  0  0  0  0  0  0  0  0  0  0  0
   -1.4289   -4.9500    0.0000 O   0  0  0  0  0  0  0  0  0  0  0  0
   -2.1434   -3.7125    0.0000 N   0  0  0  0  0  0  0  0  0  0  0  0
   -2.8579   -4.1250    0.0000 C   0  0  0  0  0  0  0  0  0  0  0  0
   -2.8579   -4.9500    0.0000 C   0  0  0  0  0  0  0  0  0  0  0  0
   -3.5724   -5.3625    0.0000 C   0  0  0  0  0  0  0  0  0  0  0  0
   -3.5724   -6.1875    0.0000 F   0  0  0  0  0  0  0  0  0  0  0  0
   -4.2868   -4.9500    0.0000 C   0  0  0  0  0  0  0  0  0  0  0  0
   -4.2868   -4.1250    0.0000 C   0  0  0  0  0  0  0  0  0  0  0  0
   -5.0013   -3.7125    0.0000 Br  0  0  0  0  0  0  0  0  0  0  0  0
   -3.5724   -3.7125    0.0000 C   0  0  0  0  0  0  0  0  0  0  0  0
   -3.5724   -2.8875    0.0000 O   0  0  0  0  0  0  0  0  0  0  0  0
   -4.2868   -2.4750    0.0000 C   0  0  0  0  0  0  0  0  0  0  0  0
   -5.0013   -2.8875    0.0000 C   0  0  0  0  0  0  0  0  0  0  0  0
  1  2  1  0  0  0  0
  2  3  1  0  0  0  0
  3  4  1  0  0  0  0
  4  5  2  0  0  0  0
  4  6  1  0  0  0  0
  6  7  2  0  0  0  0
  7  8  1  0  0  0  0
  7  9  1  0  0  0  0
  9 10  1  0  0  0  0
 10 11  1  0  0  0  0
 10 12  2  0  0  0  0
 12 13  1  0  0  0  0
  6 13  1  0  0  0  0
 12 14  1  0  0  0  0
 14 15  2  0  0  0  0
 14 16  1  0  0  0  0
 16 17  1  0  0  0  0
 17 18  2  0  0  0  0
 18 19  1  0  0  0  0
 19 20  1  0  0  0  0
 19 21  2  0  0  0  0
 21 22  1  0  0  0  0
 22 23  1  0  0  0  0
 22 24  2  0  0  0  0
 17 24  1  0  0  0  0
 24 25  1  0  0  0  0
 25 26  1  0  0  0  0
 26 27  1  0  0  0  0
M  END
> <ID>
CPD_1142

$$$$
CPD_1147
  Mrv1822 09091914012D          

 29 30  0  0  1  0            999 V2000
   -1.4289   -2.4750    0.0000 C   0  0  0  0  0  0  0  0  0  0  0  0
   -0.7145   -2.0625    0.0000 C   0  0  0  0  0  0  0  0  0  0  0  0
   -0.3020   -2.7770    0.0000 C   0  0  0  0  0  0  0  0  0  0  0  0
   -1.1270   -1.3480    0.0000 C   0  0  0  0  0  0  0  0  0  0  0  0
    0.0000   -1.6500    0.0000 O   0  0  0  0  0  0  0  0  0  0  0  0
    0.7145   -2.0625    0.0000 C   0  0  0  0  0  0  0  0  0  0  0  0
    0.7145   -2.8875    0.0000 O   0  0  0  0  0  0  0  0  0  0  0  0
    1.4289   -1.6500    0.0000 N   0  0  0  0  0  0  0  0  0  0  0  0
    2.1434   -2.0625    0.0000 C   0  0  2  0  0  0  0  0  0  0  0  0
    2.8579   -1.6500    0.0000 C   0  0  1  0  0  0  0  0  0  0  0  0
    2.8579   -0.8250    0.0000 O   0  0  0  0  0  0  0  0  0  0  0  0
    3.5724   -2.0625    0.0000 C   0  0  0  0  0  0  0  0  0  0  0  0
    3.5724   -2.8875    0.0000 O   0  0  0  0  0  0  0  0  0  0  0  0
    4.2868   -1.6500    0.0000 N   0  0  0  0  0  0  0  0  0  0  0  0
    5.0013   -2.0625    0.0000 C   0  0  0  0  0  0  0  0  0  0  0  0
    5.7158   -1.6500    0.0000 C   0  0  0  0  0  0  0  0  0  0  0  0
    5.7158   -0.8250    0.0000 N   0  0  0  0  0  0  0  0  0  0  0  0
    6.4302   -2.0625    0.0000 C   0  0  0  0  0  0  0  0  0  0  0  0
    7.1447   -1.6500    0.0000 O   0  0  0  0  0  0  0  0  0  0  0  0
    6.4302   -2.8875    0.0000 N   0  0  0  0  0  0  0  0  0  0  0  0
    5.7158   -3.3000    0.0000 C   0  0  0  0  0  0  0  0  0  0  0  0
    5.7158   -4.1250    0.0000 N   0  0  0  0  0  0  0  0  0  0  0  0
    5.0013   -2.8875    0.0000 N   0  0  0  0  0  0  0  0  0  0  0  0
    2.1434   -2.8875    0.0000 C   0  0  0  0  0  0  0  0  0  0  0  0
    2.8579   -3.3000    0.0000 C   0  0  0  0  0  0  0  0  0  0  0  0
    2.8579   -4.1250    0.0000 C   0  0  0  0  0  0  0  0  0  0  0  0
    2.1434   -4.5375    0.0000 C   0  0  0  0  0  0  0  0  0  0  0  0
    1.4289   -4.1250    0.0000 C   0  0  0  0  0  0  0  0  0  0  0  0
    1.4289   -3.3000    0.0000 C   0  0  0  0  0  0  0  0  0  0  0  0
  1  2  1  0  0  0  0
  2  3  1  0  0  0  0
  2  4  1  0  0  0  0
  2  5  1  0  0  0  0
  5  6  1  0  0  0  0
  6  7  2  0  0  0  0
  6  8  1  0  0  0  0
  9  8  1  6  0  0  0
  9 10  1  0  0  0  0
 10 11  1  1  0  0  0
 10 12  1  0  0  0  0
 12 13  2  0  0  0  0
 12 14  1  0  0  0  0
 14 15  1  0  0  0  0
 15 16  2  0  0  0  0
 16 17  1  0  0  0  0
 16 18  1  0  0  0  0
 18 19  2  0  0  0  0
 18 20  1  0  0  0  0
 20 21  1  0  0  0  0
 21 22  1  0  0  0  0
 21 23  2  0  0  0  0
 15 23  1  0  0  0  0
  9 24  1  0  0  0  0
 24 25  2  0  0  0  0
 25 26  1  0  0  0  0
 26 27  2  0  0  0  0
 27 28  1  0  0  0  0
 28 29  2  0  0  0  0
 24 29  1  0  0  0  0
M  END
> <ID>
CPD_1147

$$$$
CPD_1152
  Mrv1822 09091914012D          

 27 29  0  0  0  0            999 V2000
    5.7158   -2.4750    0.0000 C   0  0  0  0  0  0  0  0  0  0  0  0
    5.0013   -2.8875    0.0000 O   0  0  0  0  0  0  0  0  0  0  0  0
    5.0013   -3.7125    0.0000 C   0  0  0  0  0  0  0  0  0  0  0  0
    5.7158   -4.1250    0.0000 C   0  0  0  0  0  0  0  0  0  0  0  0
    5.7158   -4.9500    0.0000 C   0  0  0  0  0  0  0  0  0  0  0  0
    5.0013   -5.3625    0.0000 C   0  0  0  0  0  0  0  0  0  0  0  0
    4.2868   -4.9500    0.0000 C   0  0  0  0  0  0  0  0  0  0  0  0
    4.2868   -4.1250    0.0000 C   0  0  0  0  0  0  0  0  0  0  0  0
    3.5724   -5.3625    0.0000 C   0  0  0  0  0  0  0  0  0  0  0  0
    3.5724   -6.1875    0.0000 C   0  0  0  0  0  0  0  0  0  0  0  0
    2.8579   -6.6000    0.0000 C   0  0  0  0  0  0  0  0  0  0  0  0
    2.1434   -6.1875    0.0000 C   0  0  0  0  0  0  0  0  0  0  0  0
    1.4289   -6.6000    0.0000 C   0  0  0  0  0  0  0  0  0  0  0  0
    0.7145   -6.1875    0.0000 C   0  0  0  0  0  0  0  0  0  0  0  0
    0.7145   -5.3625    0.0000 O   0  0  0  0  0  0  0  0  0  0  0  0
    0.0000   -6.6000    0.0000 N   0  0  0  0  0  0  0  0  0  0  0  0
   -0.7145   -6.1875    0.0000 C   0  0  0  0  0  0  0  0  0  0  0  0
   -1.4289   -6.6000    0.0000 C   0  0  0  0  0  0  0  0  0  0  0  0
   -1.4289   -7.4250    0.0000 N   0  0  0  0  0  0  0  0  0  0  0  0
   -2.1434   -6.1875    0.0000 C   0  0  0  0  0  0  0  0  0  0  0  0
   -2.8579   -6.6000    0.0000 O   0  0  0  0  0  0  0  0  0  0  0  0
   -2.1434   -5.3625    0.0000 N   0  0  0  0  0  0  0  0  0  0  0  0
   -1.4289   -4.9500    0.0000 C   0  0  0  0  0  0  0  0  0  0  0  0
   -1.4289   -4.1250    0.0000 N   0  0  0  0  0  0  0  0  0  0  0  0
   -0.7145   -5.3625    0.0000 N   0  0  0  0  0  0  0  0  0  0  0  0
    2.1434   -5.3625    0.0000 C   0  0  0  0  0  0  0  0  0  0  0  0
    2.8579   -4.9500    0.0000 C   0  0  0  0  0  0  0  0  0  0  0  0
  1  2  1  0  0  0  0
  2  3  1  0  0  0  0
  3  4  2  0  0  0  0
  4  5  1  0  0  0  0
  5  6  2  0  0  0  0
  6  7  1  0  0  0  0
  7  8  2  0  0  0  0
  3  8  1  0  0  0  0
  7  9  1  0  0  0  0
  9 10  2  0  0  0  0
 10 11  1  0  0  0  0
 11 12  2  0  0  0  0
 12 13  1  0  0  0  0
 13 14  1  0  0  0  0
 14 15  2  0  0  0  0
 14 16  1  0  0  0  0
 16 17  1  0  0  0  0
 17 18  2  0  0  0  0
 18 19  1  0  0  0  0
 18 20  1  0  0  0  0
 20 21  2  0  0  0  0
 20 22  1  0  0  0  0
 22 23  1  0  0  0  0
 23 24  1  0  0  0  0
 23 25  2  0  0  0  0
 17 25  1  0  0  0  0
 12 26  1  0  0  0  0
 26 27  2  0  0  0  0
  9 27  1  0  0  0  0
M  END
> <ID>
CPD_1152

$$$$
CPD_1157
  Mrv1822 09091914012D          

 28 30  0  0  0  0            999 V2000
   -0.1067    4.8884    0.0000 C   0  0  0  0  0  0  0  0  0  0  0  0
   -0.8212    4.4759    0.0000 C   0  0  0  0  0  0  0  0  0  0  0  0
   -0.8212    3.6509    0.0000 C   0  0  0  0  0  0  0  0  0  0  0  0
   -1.5356    3.2384    0.0000 C   0  0  0  0  0  0  0  0  0  0  0  0
   -1.5356    2.4134    0.0000 C   0  0  0  0  0  0  0  0  0  0  0  0
   -0.8212    2.0009    0.0000 O   0  0  0  0  0  0  0  0  0  0  0  0
   -0.1067    2.4134    0.0000 C   0  0  0  0  0  0  0  0  0  0  0  0
    0.6078    2.0009    0.0000 C   0  0  0  0  0  0  0  0  0  0  0  0
    1.3222    2.4134    0.0000 C   0  0  0  0  0  0  0  0  0  0  0  0
    1.3222    3.2384    0.0000 C   0  0  0  0  0  0  0  0  0  0  0  0
    2.0367    3.6509    0.0000 C   0  0  0  0  0  0  0  0  0  0  0  0
    2.7512    3.2384    0.0000 C   0  0  0  0  0  0  0  0  0  0  0  0
    2.7512    2.4134    0.0000 N   0  0  0  0  0  0  0  0  0  0  0  0
    2.0367    2.0009    0.0000 C   0  0  0  0  0  0  0  0  0  0  0  0
    3.4656    2.0009    0.0000 C   0  0  0  0  0  0  0  0  0  0  0  0
    4.1801    2.4134    0.0000 O   0  0  0  0  0  0  0  0  0  0  0  0
    3.4656    1.1759    0.0000 C   0  0  0  0  0  0  0  0  0  0  0  0
    4.1331    0.6910    0.0000 C   0  0  0  0  0  0  0  0  0  0  0  0
    4.9177    0.9459    0.0000 C   0  0  0  0  0  0  0  0  0  0  0  0
    5.5308    0.3939    0.0000 O   0  0  0  0  0  0  0  0  0  0  0  0
    3.8781   -0.0937    0.0000 O   0  0  0  0  0  0  0  0  0  0  0  0
    3.0531   -0.0937    0.0000 N   0  0  0  0  0  0  0  0  0  0  0  0
    2.7982    0.6910    0.0000 C   0  0  0  0  0  0  0  0  0  0  0  0
    2.0136    0.9459    0.0000 C   0  0  0  0  0  0  0  0  0  0  0  0
   -2.2501    2.0009    0.0000 C   0  0  0  0  0  0  0  0  0  0  0  0
   -2.9646    2.4134    0.0000 C   0  0  0  0  0  0  0  0  0  0  0  0
   -2.9646    3.2384    0.0000 C   0  0  0  0  0  0  0  0  0  0  0  0
   -2.2501    3.6509    0.0000 C   0  0  0  0  0  0  0  0  0  0  0  0
  1  2  1  0  0  0  0
  2  3  1  0  0  0  0
  3  4  1  0  0  0  0
  4  5  2  0  0  0  0
  5  6  1  0  0  0  0
  6  7  1  0  0  0  0
  7  8  1  0  0  0  0
  8  9  1  0  0  0  0
  9 10  1  0  0  0  0
 10 11  1  0  0  0  0
 11 12  1  0  0  0  0
 12 13  1  0  0  0  0
 13 14  1  0  0  0  0
  9 14  1  0  0  0  0
 13 15  1  0  0  0  0
 15 16  2  0  0  0  0
 15 17  1  0  0  0  0
 17 18  2  0  0  0  0
 18 19  1  0  0  0  0
 19 20  1  0  0  0  0
 18 21  1  0  0  0  0
 21 22  1  0  0  0  0
 22 23  2  0  0  0  0
 17 23  1  0  0  0  0
 23 24  1  0  0  0  0
  5 25  1  0  0  0  0
 25 26  2  0  0  0  0
 26 27  1  0  0  0  0
 27 28  2  0  0  0  0
  4 28  1  0  0  0  0
M  END
> <ID>
CPD_1157

$$$$
CPD_1162
  Mrv1822 09091914012D          

 34 38  0  0  0  0            999 V2000
    4.7812    6.8854    0.0000 C   0  0  0  0  0  0  0  0  0  0  0  0
    4.0668    7.2979    0.0000 C   0  0  0  0  0  0  0  0  0  0  0  0
    3.3523    6.8854    0.0000 C   0  0  0  0  0  0  0  0  0  0  0  0
    2.6378    7.2979    0.0000 C   0  0  0  0  0  0  0  0  0  0  0  0
    1.9233    6.8854    0.0000 C   0  0  0  0  0  0  0  0  0  0  0  0
    1.9233    6.0604    0.0000 O   0  0  0  0  0  0  0  0  0  0  0  0
    2.6378    5.6479    0.0000 C   0  0  0  0  0  0  0  0  0  0  0  0
    2.6378    4.8229    0.0000 C   0  0  0  0  0  0  0  0  0  0  0  0
    3.3523    4.4104    0.0000 C   0  0  0  0  0  0  0  0  0  0  0  0
    4.0668    4.8229    0.0000 C   0  0  0  0  0  0  0  0  0  0  0  0
    4.7812    4.4104    0.0000 C   0  0  0  0  0  0  0  0  0  0  0  0
    4.7812    3.5854    0.0000 C   0  0  0  0  0  0  0  0  0  0  0  0
    4.0668    3.1729    0.0000 N   0  0  0  0  0  0  0  0  0  0  0  0
    3.3523    3.5854    0.0000 C   0  0  0  0  0  0  0  0  0  0  0  0
    4.0668    2.3479    0.0000 C   0  0  0  0  0  0  0  0  0  0  0  0
    4.7812    1.9354    0.0000 O   0  0  0  0  0  0  0  0  0  0  0  0
    3.3523    1.9354    0.0000 C   0  0  0  0  0  0  0  0  0  0  0  0
    3.3523    1.1104    0.0000 C   0  0  0  0  0  0  0  0  0  0  0  0
    2.6378    0.6979    0.0000 C   0  0  0  0  0  0  0  0  0  0  0  0
    1.9233    1.1104    0.0000 N   0  0  0  0  0  0  0  0  0  0  0  0
    1.1387    0.8555    0.0000 N   0  0  0  0  0  0  0  0  0  0  0  0
    0.6538    1.5229    0.0000 C   0  0  0  0  0  0  0  0  0  0  0  0
    1.1387    2.1904    0.0000 N   0  0  0  0  0  0  0  0  0  0  0  0
    1.9233    1.9354    0.0000 C   0  0  0  0  0  0  0  0  0  0  0  0
    2.6378    2.3479    0.0000 N   0  0  0  0  0  0  0  0  0  0  0  0
    2.6378   -0.1271    0.0000 C   0  0  0  0  0  0  0  0  0  0  0  0
    3.3053   -0.6120    0.0000 C   0  0  0  0  0  0  0  0  0  0  0  0
    3.0503   -1.3966    0.0000 C   0  0  0  0  0  0  0  0  0  0  0  0
    2.2253   -1.3966    0.0000 C   0  0  0  0  0  0  0  0  0  0  0  0
    1.9704   -0.6120    0.0000 O   0  0  0  0  0  0  0  0  0  0  0  0
    1.2089    7.2979    0.0000 C   0  0  0  0  0  0  0  0  0  0  0  0
    1.2089    8.1229    0.0000 C   0  0  0  0  0  0  0  0  0  0  0  0
    1.9233    8.5354    0.0000 C   0  0  0  0  0  0  0  0  0  0  0  0
    2.6378    8.1229    0.0000 C   0  0  0  0  0  0  0  0  0  0  0  0
  1  2  1  0  0  0  0
  2  3  1  0  0  0  0
  3  4  1  0  0  0  0
  4  5  2  0  0  0  0
  5  6  1  0  0  0  0
  6  7  1  0  0  0  0
  7  8  1  0  0  0  0
  8  9  1  0  0  0  0
  9 10  1  0  0  0  0
 10 11  1  0  0  0  0
 11 12  1  0  0  0  0
 12 13  1  0  0  0  0
 13 14  1  0  0  0  0
  9 14  1  0  0  0  0
 13 15  1  0  0  0  0
 15 16  2  0  0  0  0
 15 17  1  0  0  0  0
 17 18  2  0  0  0  0
 18 19  1  0  0  0  0
 19 20  1  0  0  0  0
 20 21  1  0  0  0  0
 21 22  2  0  0  0  0
 22 23  1  0  0  0  0
 23 24  2  0  0  0  0
 20 24  1  0  0  0  0
 24 25  1  0  0  0  0
 17 25  1  0  0  0  0
 19 26  1  0  0  0  0
 26 27  2  0  0  0  0
 27 28  1  0  0  0  0
 28 29  2  0  0  0  0
 29 30  1  0  0  0  0
 26 30  1  0  0  0  0
  5 31  1  0  0  0  0
 31 32  2  0  0  0  0
 32 33  1  0  0  0  0
 33 34  2  0  0  0  0
  4 34  1  0  0  0  0
M  END
> <ID>
CPD_1162

$$$$
CPD_1167
  Mrv1822 09091914012D          

 24 26  0  0  0  0            999 V2000
   -3.2215    3.1895    0.0000 O   0  0  0  0  0  0  0  0  0  0  0  0
   -2.8090    2.4750    0.0000 C   0  0  0  0  0  0  0  0  0  0  0  0
   -3.2215    1.7605    0.0000 O   0  0  0  0  0  0  0  0  0  0  0  0
   -1.9840    2.4750    0.0000 C   0  0  0  0  0  0  0  0  0  0  0  0
   -1.4991    1.8076    0.0000 C   0  0  0  0  0  0  0  0  0  0  0  0
   -0.7145    2.0625    0.0000 C   0  0  0  0  0  0  0  0  0  0  0  0
   -0.7145    2.8875    0.0000 C   0  0  0  0  0  0  0  0  0  0  0  0
   -0.0000    3.3000    0.0000 C   0  0  0  0  0  0  0  0  0  0  0  0
    0.7145    2.8875    0.0000 C   0  0  0  0  0  0  0  0  0  0  0  0
    0.7145    2.0625    0.0000 N   0  0  0  0  0  0  0  0  0  0  0  0
   -0.0000    1.6500    0.0000 C   0  0  0  0  0  0  0  0  0  0  0  0
    1.4289    1.6500    0.0000 C   0  0  0  0  0  0  0  0  0  0  0  0
    1.4289    0.8250    0.0000 O   0  0  0  0  0  0  0  0  0  0  0  0
    2.1434    2.0625    0.0000 C   0  0  0  0  0  0  0  0  0  0  0  0
    2.8579    1.6500    0.0000 C   0  0  0  0  0  0  0  0  0  0  0  0
    3.5724    2.0625    0.0000 C   0  0  0  0  0  0  0  0  0  0  0  0
    3.5724    2.8875    0.0000 O   0  0  0  0  0  0  0  0  0  0  0  0
    4.2868    1.6500    0.0000 C   0  0  0  0  0  0  0  0  0  0  0  0
    5.0013    2.0625    0.0000 C   0  0  0  0  0  0  0  0  0  0  0  0
    5.7158    1.6500    0.0000 C   0  0  0  0  0  0  0  0  0  0  0  0
    5.7158    0.8250    0.0000 C   0  0  0  0  0  0  0  0  0  0  0  0
    5.0013    0.4125    0.0000 C   0  0  0  0  0  0  0  0  0  0  0  0
    4.2868    0.8250    0.0000 C   0  0  0  0  0  0  0  0  0  0  0  0
   -1.4991    3.1424    0.0000 S   0  0  0  0  0  0  0  0  0  0  0  0
  1  2  1  0  0  0  0
  2  3  2  0  0  0  0
  2  4  1  0  0  0  0
  4  5  2  0  0  0  0
  5  6  1  0  0  0  0
  6  7  2  0  0  0  0
  7  8  1  0  0  0  0
  8  9  1  0  0  0  0
  9 10  1  0  0  0  0
 10 11  1  0  0  0  0
  6 11  1  0  0  0  0
 10 12  1  0  0  0  0
 12 13  2  0  0  0  0
 12 14  1  0  0  0  0
 14 15  1  0  0  0  0
 15 16  1  0  0  0  0
 16 17  2  0  0  0  0
 16 18  1  0  0  0  0
 18 19  2  0  0  0  0
 19 20  1  0  0  0  0
 20 21  2  0  0  0  0
 21 22  1  0  0  0  0
 22 23  2  0  0  0  0
 18 23  1  0  0  0  0
  7 24  1  0  0  0  0
  4 24  1  0  0  0  0
M  END
> <ID>
CPD_1167

$$$$
CPD_1172
  Mrv1822 09091914012D          

 33 34  0  0  0  0            999 V2000
    1.0164   -5.6645    0.0000 C   0  0  0  0  0  0  0  0  0  0  0  0
    1.4289   -4.9500    0.0000 C   0  0  0  0  0  0  0  0  0  0  0  0
    1.8414   -4.2355    0.0000 C   0  0  0  0  0  0  0  0  0  0  0  0
    2.1434   -5.3625    0.0000 C   0  0  0  0  0  0  0  0  0  0  0  0
    0.7145   -4.5375    0.0000 C   0  0  0  0  0  0  0  0  0  0  0  0
    0.0000   -4.9500    0.0000 C   0  0  0  0  0  0  0  0  0  0  0  0
    0.0000   -5.7750    0.0000 C   0  0  0  0  0  0  0  0  0  0  0  0
   -0.7145   -6.1875    0.0000 O   0  0  0  0  0  0  0  0  0  0  0  0
    0.7145   -6.1875    0.0000 O   0  0  0  0  0  0  0  0  0  0  0  0
    0.7145   -3.7125    0.0000 N   0  0  0  0  0  0  0  0  0  0  0  0
    1.4289   -3.3000    0.0000 C   0  0  0  0  0  0  0  0  0  0  0  0
    2.1434   -3.7125    0.0000 O   0  0  0  0  0  0  0  0  0  0  0  0
    1.4289   -2.4750    0.0000 C   0  0  0  0  0  0  0  0  0  0  0  0
    2.1434   -2.0625    0.0000 N   0  0  0  0  0  0  0  0  0  0  0  0
    2.1434   -1.2375    0.0000 C   0  0  0  0  0  0  0  0  0  0  0  0
    1.4289   -0.8250    0.0000 C   0  0  0  0  0  0  0  0  0  0  0  0
    1.4289    0.0000    0.0000 C   0  0  0  0  0  0  0  0  0  0  0  0
    2.1434    0.4125    0.0000 C   0  0  0  0  0  0  0  0  0  0  0  0
    2.8579    0.0000    0.0000 C   0  0  0  0  0  0  0  0  0  0  0  0
    2.8579   -0.8250    0.0000 C   0  0  0  0  0  0  0  0  0  0  0  0
    3.5724    0.4125    0.0000 C   0  0  0  0  0  0  0  0  0  0  0  0
    4.2868    0.8250    0.0000 F   0  0  0  0  0  0  0  0  0  0  0  0
    3.9849   -0.3020    0.0000 F   0  0  0  0  0  0  0  0  0  0  0  0
    3.1599    1.1270    0.0000 F   0  0  0  0  0  0  0  0  0  0  0  0
    2.8579   -2.4750    0.0000 S   0  0  0  0  0  0  0  0  0  0  0  0
    2.4454   -3.1895    0.0000 O   0  0  0  0  0  0  0  0  0  0  0  0
    3.2704   -1.7605    0.0000 O   0  0  0  0  0  0  0  0  0  0  0  0
    3.5724   -2.8875    0.0000 C   0  0  0  0  0  0  0  0  0  0  0  0
    4.2868   -2.4750    0.0000 C   0  0  0  0  0  0  0  0  0  0  0  0
    5.0013   -2.8875    0.0000 C   0  0  0  0  0  0  0  0  0  0  0  0
    5.0013   -3.7125    0.0000 C   0  0  0  0  0  0  0  0  0  0  0  0
    4.2868   -4.1250    0.0000 C   0  0  0  0  0  0  0  0  0  0  0  0
    3.5724   -3.7125    0.0000 C   0  0  0  0  0  0  0  0  0  0  0  0
  1  2  1  0  0  0  0
  2  3  1  0  0  0  0
  2  4  1  0  0  0  0
  2  5  1  0  0  0  0
  5  6  1  0  0  0  0
  6  7  1  0  0  0  0
  7  8  1  0  0  0  0
  7  9  2  0  0  0  0
  5 10  1  0  0  0  0
 10 11  1  0  0  0  0
 11 12  2  0  0  0  0
 11 13  1  0  0  0  0
 13 14  1  0  0  0  0
 14 15  1  0  0  0  0
 15 16  2  0  0  0  0
 16 17  1  0  0  0  0
 17 18  2  0  0  0  0
 18 19  1  0  0  0  0
 19 20  2  0  0  0  0
 15 20  1  0  0  0  0
 19 21  1  0  0  0  0
 21 22  1  0  0  0  0
 21 23  1  0  0  0  0
 21 24  1  0  0  0  0
 14 25  1  0  0  0  0
 25 26  2  0  0  0  0
 25 27  2  0  0  0  0
 25 28  1  0  0  0  0
 28 29  2  0  0  0  0
 29 30  1  0  0  0  0
 30 31  2  0  0  0  0
 31 32  1  0  0  0  0
 32 33  2  0  0  0  0
 28 33  1  0  0  0  0
M  END
> <ID>
CPD_1172

$$$$
CPD_1177
  Mrv1822 09091914012D          

 28 30  0  0  0  0            999 V2000
    0.6039   -3.3000    0.0000 C   0  0  0  0  0  0  0  0  0  0  0  0
    1.4289   -3.3000    0.0000 C   0  0  0  0  0  0  0  0  0  0  0  0
    2.2539   -3.3000    0.0000 C   0  0  0  0  0  0  0  0  0  0  0  0
    1.4289   -4.1250    0.0000 C   0  0  0  0  0  0  0  0  0  0  0  0
    1.4289   -2.4750    0.0000 C   0  0  0  0  0  0  0  0  0  0  0  0
    2.1434   -2.0625    0.0000 C   0  0  0  0  0  0  0  0  0  0  0  0
    2.8579   -2.4750    0.0000 C   0  0  0  0  0  0  0  0  0  0  0  0
    3.5724   -2.0625    0.0000 O   0  0  0  0  0  0  0  0  0  0  0  0
    2.8579   -3.3000    0.0000 O   0  0  0  0  0  0  0  0  0  0  0  0
    0.7145   -2.0625    0.0000 N   0  0  0  0  0  0  0  0  0  0  0  0
    0.0000   -2.4750    0.0000 C   0  0  0  0  0  0  0  0  0  0  0  0
    0.0000   -3.3000    0.0000 O   0  0  0  0  0  0  0  0  0  0  0  0
   -0.7145   -2.0625    0.0000 C   0  0  0  0  0  0  0  0  0  0  0  0
   -1.4289   -2.4750    0.0000 C   0  0  0  0  0  0  0  0  0  0  0  0
   -2.1434   -2.0625    0.0000 C   0  0  0  0  0  0  0  0  0  0  0  0
   -2.1434   -1.2375    0.0000 C   0  0  0  0  0  0  0  0  0  0  0  0
   -2.9280   -0.9826    0.0000 N   0  0  0  0  0  0  0  0  0  0  0  0
   -3.4130   -1.6500    0.0000 C   0  0  0  0  0  0  0  0  0  0  0  0
   -2.9280   -2.3174    0.0000 N   0  0  0  0  0  0  0  0  0  0  0  0
   -4.2380   -1.6500    0.0000 C   0  0  0  0  0  0  0  0  0  0  0  0
   -4.6505   -2.3645    0.0000 C   0  0  0  0  0  0  0  0  0  0  0  0
   -5.4755   -2.3645    0.0000 C   0  0  0  0  0  0  0  0  0  0  0  0
   -5.8880   -1.6500    0.0000 C   0  0  0  0  0  0  0  0  0  0  0  0
   -6.7130   -1.6500    0.0000 F   0  0  0  0  0  0  0  0  0  0  0  0
   -5.4755   -0.9355    0.0000 C   0  0  0  0  0  0  0  0  0  0  0  0
   -4.6505   -0.9355    0.0000 C   0  0  0  0  0  0  0  0  0  0  0  0
   -1.4289   -0.8250    0.0000 C   0  0  0  0  0  0  0  0  0  0  0  0
   -0.7145   -1.2375    0.0000 C   0  0  0  0  0  0  0  0  0  0  0  0
  1  2  1  0  0  0  0
  2  3  1  0  0  0  0
  2  4  1  0  0  0  0
  2  5  1  0  0  0  0
  5  6  1  0  0  0  0
  6  7  1  0  0  0  0
  7  8  1  0  0  0  0
  7  9  2  0  0  0  0
  5 10  1  0  0  0  0
 10 11  1  0  0  0  0
 11 12  2  0  0  0  0
 11 13  1  0  0  0  0
 13 14  2  0  0  0  0
 14 15  1  0  0  0  0
 15 16  2  0  0  0  0
 16 17  1  0  0  0  0
 17 18  1  0  0  0  0
 18 19  2  0  0  0  0
 15 19  1  0  0  0  0
 18 20  1  0  0  0  0
 20 21  2  0  0  0  0
 21 22  1  0  0  0  0
 22 23  2  0  0  0  0
 23 24  1  0  0  0  0
 23 25  1  0  0  0  0
 25 26  2  0  0  0  0
 20 26  1  0  0  0  0
 16 27  1  0  0  0  0
 27 28  2  0  0  0  0
 13 28  1  0  0  0  0
M  END
> <ID>
CPD_1177

$$$$
CPD_1182
  Mrv1822 09091914012D          

 21 21  0  0  0  0            999 V2000
    2.8579   -3.3000    0.0000 C   0  0  0  0  0  0  0  0  0  0  0  0
    2.8579   -2.4750    0.0000 O   0  0  0  0  0  0  0  0  0  0  0  0
    2.1434   -2.0625    0.0000 C   0  0  0  0  0  0  0  0  0  0  0  0
    1.4289   -2.4750    0.0000 C   0  0  0  0  0  0  0  0  0  0  0  0
    0.7145   -2.0625    0.0000 N   0  0  0  0  0  0  0  0  0  0  0  0
    0.7145   -1.2375    0.0000 C   0  0  0  0  0  0  0  0  0  0  0  0
    0.0000   -0.8250    0.0000 C   0  0  0  0  0  0  0  0  0  0  0  0
    1.4289   -0.8250    0.0000 N   0  0  0  0  0  0  0  0  0  0  0  0
    2.1434   -1.2375    0.0000 C   0  0  0  0  0  0  0  0  0  0  0  0
    2.8579   -0.8250    0.0000 C   0  0  0  0  0  0  0  0  0  0  0  0
    3.5724   -1.2375    0.0000 O   0  0  0  0  0  0  0  0  0  0  0  0
    2.8579    0.0000    0.0000 N   0  0  0  0  0  0  0  0  0  0  0  0
    3.5724    0.4125    0.0000 C   0  0  0  0  0  0  0  0  0  0  0  0
    3.5724    1.2375    0.0000 C   0  0  0  0  0  0  0  0  0  0  0  0
    4.2868    1.6500    0.0000 C   0  0  0  0  0  0  0  0  0  0  0  0
    4.2868    2.4750    0.0000 O   0  0  0  0  0  0  0  0  0  0  0  0
    5.0013    1.2375    0.0000 O   0  0  0  0  0  0  0  0  0  0  0  0
    4.2868    0.0000    0.0000 C   0  0  0  0  0  0  0  0  0  0  0  0
    3.8743   -0.7145    0.0000 C   0  0  0  0  0  0  0  0  0  0  0  0
    4.6993    0.7145    0.0000 C   0  0  0  0  0  0  0  0  0  0  0  0
    5.0013   -0.4125    0.0000 C   0  0  0  0  0  0  0  0  0  0  0  0
  1  2  1  0  0  0  0
  2  3  1  0  0  0  0
  3  4  2  0  0  0  0
  4  5  1  0  0  0  0
  5  6  2  0  0  0  0
  6  7  1  0  0  0  0
  6  8  1  0  0  0  0
  8  9  2  0  0  0  0
  3  9  1  0  0  0  0
  9 10  1  0  0  0  0
 10 11  2  0  0  0  0
 10 12  1  0  0  0  0
 12 13  1  0  0  0  0
 13 14  1  0  0  0  0
 14 15  1  0  0  0  0
 15 16  1  0  0  0  0
 15 17  2  0  0  0  0
 13 18  1  0  0  0  0
 18 19  1  0  0  0  0
 18 20  1  0  0  0  0
 18 21  1  0  0  0  0
M  END
> <ID>
CPD_1182

$$$$
CPD_1187
  Mrv1822 09091914012D          

 30 34  0  0  0  0            999 V2000
   -2.8579    3.3000    0.0000 O   0  0  0  0  0  0  0  0  0  0  0  0
   -2.1434    3.7125    0.0000 C   0  0  0  0  0  0  0  0  0  0  0  0
   -1.4289    3.3000    0.0000 N   0  0  0  0  0  0  0  0  0  0  0  0
   -0.7145    3.7125    0.0000 C   0  0  0  0  0  0  0  0  0  0  0  0
    0.0000    3.3000    0.0000 C   0  0  0  0  0  0  0  0  0  0  0  0
    0.0000    2.4750    0.0000 C   0  0  0  0  0  0  0  0  0  0  0  0
   -0.7145    2.0625    0.0000 C   0  0  0  0  0  0  0  0  0  0  0  0
   -0.7145    1.2375    0.0000 C   0  0  0  0  0  0  0  0  0  0  0  0
    0.0000    0.8250    0.0000 C   0  0  0  0  0  0  0  0  0  0  0  0
    0.0000   -0.0000    0.0000 N   0  0  0  0  0  0  0  0  0  0  0  0
   -0.7145   -0.4125    0.0000 C   0  0  0  0  0  0  0  0  0  0  0  0
   -0.7145   -1.2375    0.0000 C   0  0  0  0  0  0  0  0  0  0  0  0
    0.0000   -1.6500    0.0000 C   0  0  0  0  0  0  0  0  0  0  0  0
    0.7145   -1.2375    0.0000 C   0  0  0  0  0  0  0  0  0  0  0  0
    0.7145   -0.4125    0.0000 C   0  0  0  0  0  0  0  0  0  0  0  0
    1.4289   -0.0000    0.0000 C   0  0  0  0  0  0  0  0  0  0  0  0
    2.1434   -0.4125    0.0000 C   0  0  0  0  0  0  0  0  0  0  0  0
    2.1434   -1.2375    0.0000 C   0  0  0  0  0  0  0  0  0  0  0  0
    1.4289   -1.6500    0.0000 C   0  0  0  0  0  0  0  0  0  0  0  0
   -1.4289    2.4750    0.0000 C   0  0  0  0  0  0  0  0  0  0  0  0
   -2.1434    4.5375    0.0000 C   0  0  0  0  0  0  0  0  0  0  0  0
   -2.8109    5.0224    0.0000 C   0  0  0  0  0  0  0  0  0  0  0  0
   -2.5559    5.8070    0.0000 C   0  0  0  0  0  0  0  0  0  0  0  0
   -1.7309    5.8070    0.0000 C   0  0  0  0  0  0  0  0  0  0  0  0
   -1.4760    5.0224    0.0000 S   0  0  0  0  0  0  0  0  0  0  0  0
   -3.5955    4.7675    0.0000 N   0  0  0  0  0  0  0  0  0  0  0  0
   -3.8504    3.9829    0.0000 C   0  0  0  0  0  0  0  0  0  0  0  0
   -4.6754    3.9829    0.0000 C   0  0  0  0  0  0  0  0  0  0  0  0
   -4.9304    4.7675    0.0000 C   0  0  0  0  0  0  0  0  0  0  0  0
   -4.2629    5.2524    0.0000 C   0  0  0  0  0  0  0  0  0  0  0  0
  1  2  2  0  0  0  0
  2  3  1  0  0  0  0
  3  4  1  0  0  0  0
  4  5  1  0  0  0  0
  5  6  1  0  0  0  0
  6  7  1  0  0  0  0
  7  8  1  0  0  0  0
  8  9  1  0  0  0  0
  9 10  1  0  0  0  0
 10 11  1  0  0  0  0
 11 12  1  0  0  0  0
 12 13  1  0  0  0  0
 13 14  1  0  0  0  0
 14 15  2  0  0  0  0
 10 15  1  0  0  0  0
 15 16  1  0  0  0  0
 16 17  2  0  0  0  0
 17 18  1  0  0  0  0
 18 19  2  0  0  0  0
 14 19  1  0  0  0  0
  7 20  1  0  0  0  0
  3 20  1  0  0  0  0
  2 21  1  0  0  0  0
 21 22  2  0  0  0  0
 22 23  1  0  0  0  0
 23 24  2  0  0  0  0
 24 25  1  0  0  0  0
 21 25  1  0  0  0  0
 22 26  1  0  0  0  0
 26 27  1  0  0  0  0
 27 28  2  0  0  0  0
 28 29  1  0  0  0  0
 29 30  2  0  0  0  0
 26 30  1  0  0  0  0
M  END
> <ID>
CPD_1187

$$$$
CPD_1192
  Mrv1822 09091914012D          

 28 31  0  0  0  0            999 V2000
   -3.5724    4.5375    0.0000 C   0  0  0  0  0  0  0  0  0  0  0  0
   -2.8579    4.9500    0.0000 C   0  0  0  0  0  0  0  0  0  0  0  0
   -2.8579    5.7750    0.0000 C   0  0  0  0  0  0  0  0  0  0  0  0
   -3.5724    6.1875    0.0000 Cl  0  0  0  0  0  0  0  0  0  0  0  0
   -2.1434    6.1875    0.0000 C   0  0  0  0  0  0  0  0  0  0  0  0
   -1.4289    5.7750    0.0000 C   0  0  0  0  0  0  0  0  0  0  0  0
   -1.4289    4.9500    0.0000 C   0  0  0  0  0  0  0  0  0  0  0  0
   -2.1434    4.5375    0.0000 C   0  0  0  0  0  0  0  0  0  0  0  0
   -2.1434    3.7125    0.0000 C   0  0  0  0  0  0  0  0  0  0  0  0
   -2.8579    3.3000    0.0000 O   0  0  0  0  0  0  0  0  0  0  0  0
   -1.4289    3.3000    0.0000 N   0  0  0  0  0  0  0  0  0  0  0  0
   -0.7145    3.7125    0.0000 C   0  0  0  0  0  0  0  0  0  0  0  0
    0.0000    3.3000    0.0000 C   0  0  0  0  0  0  0  0  0  0  0  0
    0.0000    2.4750    0.0000 C   0  0  0  0  0  0  0  0  0  0  0  0
   -0.7145    2.0625    0.0000 C   0  0  0  0  0  0  0  0  0  0  0  0
   -0.7145    1.2375    0.0000 C   0  0  0  0  0  0  0  0  0  0  0  0
    0.0000    0.8250    0.0000 C   0  0  0  0  0  0  0  0  0  0  0  0
    0.0000   -0.0000    0.0000 N   0  0  0  0  0  0  0  0  0  0  0  0
   -0.7145   -0.4125    0.0000 C   0  0  0  0  0  0  0  0  0  0  0  0
   -0.7145   -1.2375    0.0000 C   0  0  0  0  0  0  0  0  0  0  0  0
    0.0000   -1.6500    0.0000 C   0  0  0  0  0  0  0  0  0  0  0  0
    0.7145   -1.2375    0.0000 C   0  0  0  0  0  0  0  0  0  0  0  0
    0.7145   -0.4125    0.0000 C   0  0  0  0  0  0  0  0  0  0  0  0
    1.4289   -0.0000    0.0000 C   0  0  0  0  0  0  0  0  0  0  0  0
    2.1434   -0.4125    0.0000 C   0  0  0  0  0  0  0  0  0  0  0  0
    2.1434   -1.2375    0.0000 C   0  0  0  0  0  0  0  0  0  0  0  0
    1.4289   -1.6500    0.0000 C   0  0  0  0  0  0  0  0  0  0  0  0
   -1.4289    2.4750    0.0000 C   0  0  0  0  0  0  0  0  0  0  0  0
  1  2  1  0  0  0  0
  2  3  2  0  0  0  0
  3  4  1  0  0  0  0
  3  5  1  0  0  0  0
  5  6  2  0  0  0  0
  6  7  1  0  0  0  0
  7  8  2  0  0  0  0
  2  8  1  0  0  0  0
  8  9  1  0  0  0  0
  9 10  2  0  0  0  0
  9 11  1  0  0  0  0
 11 12  1  0  0  0  0
 12 13  1  0  0  0  0
 13 14  1  0  0  0  0
 14 15  1  0  0  0  0
 15 16  1  0  0  0  0
 16 17  1  0  0  0  0
 17 18  1  0  0  0  0
 18 19  1  0  0  0  0
 19 20  1  0  0  0  0
 20 21  1  0  0  0  0
 21 22  1  0  0  0  0
 22 23  2  0  0  0  0
 18 23  1  0  0  0  0
 23 24  1  0  0  0  0
 24 25  2  0  0  0  0
 25 26  1  0  0  0  0
 26 27  2  0  0  0  0
 22 27  1  0  0  0  0
 15 28  1  0  0  0  0
 11 28  1  0  0  0  0
M  END
> <ID>
CPD_1192

$$$$
CPD_1197
  Mrv1822 09091914012D          

 33 34  0  0  1  0            999 V2000
   -1.4289    3.3000    0.0000 C   0  0  0  0  0  0  0  0  0  0  0  0
   -0.7145    2.8875    0.0000 O   0  0  0  0  0  0  0  0  0  0  0  0
   -0.7145    2.0625    0.0000 C   0  0  0  0  0  0  0  0  0  0  0  0
    0.0000    1.6500    0.0000 C   0  0  0  0  0  0  0  0  0  0  0  0
    0.0000    0.8250    0.0000 C   0  0  2  0  0  0  0  0  0  0  0  0
    0.7145    0.4125    0.0000 C   0  0  0  0  0  0  0  0  0  0  0  0
    0.7145   -0.4125    0.0000 N   0  0  0  0  0  0  0  0  0  0  0  0
    0.0000   -0.8250    0.0000 C   0  0  0  0  0  0  0  0  0  0  0  0
   -0.7145   -0.4125    0.0000 C   0  0  0  0  0  0  0  0  0  0  0  0
   -0.7145    0.4125    0.0000 N   0  0  0  0  0  0  0  0  0  0  0  0
   -1.4289    0.8250    0.0000 C   0  0  0  0  0  0  0  0  0  0  0  0
   -2.1434    0.4125    0.0000 O   0  0  0  0  0  0  0  0  0  0  0  0
   -1.4289    1.6500    0.0000 O   0  0  0  0  0  0  0  0  0  0  0  0
   -2.1434    2.0625    0.0000 C   0  0  0  0  0  0  0  0  0  0  0  0
   -2.8579    2.4750    0.0000 C   0  0  0  0  0  0  0  0  0  0  0  0
   -2.5559    1.3480    0.0000 C   0  0  0  0  0  0  0  0  0  0  0  0
   -1.7309    2.7770    0.0000 C   0  0  0  0  0  0  0  0  0  0  0  0
    1.4289   -0.8250    0.0000 C   0  0  0  0  0  0  0  0  0  0  0  0
    2.1434   -0.4125    0.0000 O   0  0  0  0  0  0  0  0  0  0  0  0
    1.4289   -1.6500    0.0000 C   0  0  0  0  0  0  0  0  0  0  0  0
    2.1434   -2.0625    0.0000 N   0  0  0  0  0  0  0  0  0  0  0  0
    2.1434   -2.8875    0.0000 C   0  0  0  0  0  0  0  0  0  0  0  0
    2.8579   -3.3000    0.0000 C   0  0  0  0  0  0  0  0  0  0  0  0
    3.5724   -2.8875    0.0000 C   0  0  0  0  0  0  0  0  0  0  0  0
    2.8579   -4.1250    0.0000 C   0  0  0  0  0  0  0  0  0  0  0  0
    2.1434   -4.5375    0.0000 C   0  0  0  0  0  0  0  0  0  0  0  0
    1.4289   -4.1250    0.0000 C   0  0  0  0  0  0  0  0  0  0  0  0
    1.4289   -3.3000    0.0000 C   0  0  0  0  0  0  0  0  0  0  0  0
    0.7145   -2.8875    0.0000 C   0  0  0  0  0  0  0  0  0  0  0  0
    2.8579   -1.6500    0.0000 S   0  0  0  0  0  0  0  0  0  0  0  0
    3.2704   -2.3645    0.0000 C   0  0  0  0  0  0  0  0  0  0  0  0
    2.4454   -0.9355    0.0000 O   0  0  0  0  0  0  0  0  0  0  0  0
    3.5724   -1.2375    0.0000 O   0  0  0  0  0  0  0  0  0  0  0  0
  1  2  1  0  0  0  0
  2  3  1  0  0  0  0
  3  4  1  0  0  0  0
  5  4  1  6  0  0  0
  5  6  1  0  0  0  0
  6  7  1  0  0  0  0
  7  8  1  0  0  0  0
  8  9  1  0  0  0  0
  9 10  1  0  0  0  0
  5 10  1  0  0  0  0
 10 11  1  0  0  0  0
 11 12  2  0  0  0  0
 11 13  1  0  0  0  0
 13 14  1  0  0  0  0
 14 15  1  0  0  0  0
 14 16  1  0  0  0  0
 14 17  1  0  0  0  0
  7 18  1  0  0  0  0
 18 19  2  0  0  0  0
 18 20  1  0  0  0  0
 20 21  1  0  0  0  0
 21 22  1  0  0  0  0
 22 23  2  0  0  0  0
 23 24  1  0  0  0  0
 23 25  1  0  0  0  0
 25 26  2  0  0  0  0
 26 27  1  0  0  0  0
 27 28  2  0  0  0  0
 22 28  1  0  0  0  0
 28 29  1  0  0  0  0
 21 30  1  0  0  0  0
 30 31  1  0  0  0  0
 30 32  2  0  0  0  0
 30 33  2  0  0  0  0
M  END
> <ID>
CPD_1197

$$$$
CPD_1202
  Mrv1822 09091914012D          

 27 27  0  0  1  0            999 V2000
    2.1434   -5.3625    0.0000 C   0  0  0  0  0  0  0  0  0  0  0  0
    2.8579   -4.9500    0.0000 C   0  0  0  0  0  0  0  0  0  0  0  0
    3.5724   -5.3625    0.0000 C   0  0  0  0  0  0  0  0  0  0  0  0
    4.2868   -4.9500    0.0000 C   0  0  0  0  0  0  0  0  0  0  0  0
    5.0013   -5.3625    0.0000 C   0  0  0  0  0  0  0  0  0  0  0  0
    5.7158   -4.9500    0.0000 C   0  0  0  0  0  0  0  0  0  0  0  0
    5.7158   -4.1250    0.0000 N   0  0  0  0  0  0  0  0  0  0  0  0
    6.4302   -5.3625    0.0000 C   0  0  0  0  0  0  0  0  0  0  0  0
    7.1447   -4.9500    0.0000 C   0  0  0  0  0  0  0  0  0  0  0  0
    7.1447   -4.1250    0.0000 O   0  0  0  0  0  0  0  0  0  0  0  0
    7.8592   -5.3625    0.0000 N   0  0  0  0  0  0  0  0  0  0  0  0
    8.5737   -4.9500    0.0000 C   0  0  0  0  0  0  0  0  0  0  0  0
    9.2881   -5.3625    0.0000 C   0  0  0  0  0  0  0  0  0  0  0  0
    9.2881   -6.1875    0.0000 N   0  0  0  0  0  0  0  0  0  0  0  0
    8.5737   -6.6000    0.0000 C   0  0  2  0  0  0  0  0  0  0  0  0
    8.5737   -7.4250    0.0000 C   0  0  0  0  0  0  0  0  0  0  0  0
    7.8592   -7.8375    0.0000 C   0  0  0  0  0  0  0  0  0  0  0  0
    7.8592   -8.6625    0.0000 O   0  0  0  0  0  0  0  0  0  0  0  0
    7.1447   -9.0750    0.0000 C   0  0  0  0  0  0  0  0  0  0  0  0
    7.8592   -6.1875    0.0000 C   0  0  0  0  0  0  0  0  0  0  0  0
   10.0026   -6.6000    0.0000 C   0  0  0  0  0  0  0  0  0  0  0  0
   10.7171   -6.1875    0.0000 O   0  0  0  0  0  0  0  0  0  0  0  0
   10.0026   -7.4250    0.0000 O   0  0  0  0  0  0  0  0  0  0  0  0
   10.7171   -7.8375    0.0000 C   0  0  0  0  0  0  0  0  0  0  0  0
   11.4315   -8.2500    0.0000 C   0  0  0  0  0  0  0  0  0  0  0  0
   10.3046   -8.5520    0.0000 C   0  0  0  0  0  0  0  0  0  0  0  0
   11.1296   -7.1230    0.0000 C   0  0  0  0  0  0  0  0  0  0  0  0
  1  2  1  0  0  0  0
  2  3  1  0  0  0  0
  3  4  1  0  0  0  0
  4  5  1  0  0  0  0
  5  6  1  0  0  0  0
  6  7  1  0  0  0  0
  6  8  1  0  0  0  0
  8  9  1  0  0  0  0
  9 10  2  0  0  0  0
  9 11  1  0  0  0  0
 11 12  1  0  0  0  0
 12 13  1  0  0  0  0
 13 14  1  0  0  0  0
 15 14  1  0  0  0  0
 15 16  1  6  0  0  0
 16 17  1  0  0  0  0
 17 18  1  0  0  0  0
 18 19  1  0  0  0  0
 15 20  1  0  0  0  0
 11 20  1  0  0  0  0
 14 21  1  0  0  0  0
 21 22  2  0  0  0  0
 21 23  1  0  0  0  0
 23 24  1  0  0  0  0
 24 25  1  0  0  0  0
 24 26  1  0  0  0  0
 24 27  1  0  0  0  0
M  END
> <ID>
CPD_1202

$$$$
CPD_1207
  Mrv1822 09091914012D          

 31 32  0  0  1  0            999 V2000
    1.4289    0.0000    0.0000 C   0  0  0  0  0  0  0  0  0  0  0  0
    2.1434   -0.4125    0.0000 O   0  0  0  0  0  0  0  0  0  0  0  0
    2.1434   -1.2375    0.0000 C   0  0  0  0  0  0  0  0  0  0  0  0
    2.8579   -1.6500    0.0000 C   0  0  0  0  0  0  0  0  0  0  0  0
    2.8579   -2.4750    0.0000 C   0  0  2  0  0  0  0  0  0  0  0  0
    3.5724   -2.8875    0.0000 C   0  0  0  0  0  0  0  0  0  0  0  0
    3.5724   -3.7125    0.0000 N   0  0  0  0  0  0  0  0  0  0  0  0
    2.8579   -4.1250    0.0000 C   0  0  0  0  0  0  0  0  0  0  0  0
    2.1434   -3.7125    0.0000 C   0  0  0  0  0  0  0  0  0  0  0  0
    2.1434   -2.8875    0.0000 N   0  0  0  0  0  0  0  0  0  0  0  0
    1.4289   -2.4750    0.0000 C   0  0  0  0  0  0  0  0  0  0  0  0
    0.7145   -2.8875    0.0000 O   0  0  0  0  0  0  0  0  0  0  0  0
    1.4289   -1.6500    0.0000 O   0  0  0  0  0  0  0  0  0  0  0  0
    0.7145   -1.2375    0.0000 C   0  0  0  0  0  0  0  0  0  0  0  0
    0.0000   -0.8250    0.0000 C   0  0  0  0  0  0  0  0  0  0  0  0
    0.3020   -1.9520    0.0000 C   0  0  0  0  0  0  0  0  0  0  0  0
    1.1270   -0.5230    0.0000 C   0  0  0  0  0  0  0  0  0  0  0  0
    4.2868   -4.1250    0.0000 C   0  0  0  0  0  0  0  0  0  0  0  0
    5.0013   -3.7125    0.0000 O   0  0  0  0  0  0  0  0  0  0  0  0
    4.2868   -4.9500    0.0000 C   0  0  0  0  0  0  0  0  0  0  0  0
    3.5724   -5.3625    0.0000 N   0  0  0  0  0  0  0  0  0  0  0  0
    5.0013   -5.3625    0.0000 C   0  0  0  0  0  0  0  0  0  0  0  0
    5.0013   -6.1875    0.0000 C   0  0  0  0  0  0  0  0  0  0  0  0
    5.7158   -6.6000    0.0000 C   0  0  0  0  0  0  0  0  0  0  0  0
    6.4302   -6.1875    0.0000 Cl  0  0  0  0  0  0  0  0  0  0  0  0
    5.7158   -7.4250    0.0000 C   0  0  0  0  0  0  0  0  0  0  0  0
    5.0013   -7.8375    0.0000 C   0  0  0  0  0  0  0  0  0  0  0  0
    4.2868   -7.4250    0.0000 C   0  0  0  0  0  0  0  0  0  0  0  0
    3.5724   -7.8375    0.0000 F   0  0  0  0  0  0  0  0  0  0  0  0
    4.2868   -6.6000    0.0000 C   0  0  0  0  0  0  0  0  0  0  0  0
    3.5724   -6.1875    0.0000 F   0  0  0  0  0  0  0  0  0  0  0  0
  1  2  1  0  0  0  0
  2  3  1  0  0  0  0
  3  4  1  0  0  0  0
  5  4  1  6  0  0  0
  5  6  1  0  0  0  0
  6  7  1  0  0  0  0
  7  8  1  0  0  0  0
  8  9  1  0  0  0  0
  9 10  1  0  0  0  0
  5 10  1  0  0  0  0
 10 11  1  0  0  0  0
 11 12  2  0  0  0  0
 11 13  1  0  0  0  0
 13 14  1  0  0  0  0
 14 15  1  0  0  0  0
 14 16  1  0  0  0  0
 14 17  1  0  0  0  0
  7 18  1  0  0  0  0
 18 19  2  0  0  0  0
 18 20  1  0  0  0  0
 20 21  1  0  0  0  0
 20 22  1  0  0  0  0
 22 23  1  0  0  0  0
 23 24  2  0  0  0  0
 24 25  1  0  0  0  0
 24 26  1  0  0  0  0
 26 27  2  0  0  0  0
 27 28  1  0  0  0  0
 28 29  1  0  0  0  0
 28 30  2  0  0  0  0
 23 30  1  0  0  0  0
 30 31  1  0  0  0  0
M  END
> <ID>
CPD_1207

$$$$
CPD_1212
  Mrv1822 09091914012D          

 22 24  0  0  0  0            999 V2000
   -4.9469    0.4949    0.0000 C   0  0  0  0  0  0  0  0  0  0  0  0
   -4.1399    0.6665    0.0000 C   0  0  0  0  0  0  0  0  0  0  0  0
   -3.5878    0.0534    0.0000 O   0  0  0  0  0  0  0  0  0  0  0  0
   -2.7809    0.2249    0.0000 C   0  0  0  0  0  0  0  0  0  0  0  0
   -2.5259    1.0095    0.0000 O   0  0  0  0  0  0  0  0  0  0  0  0
   -2.2288   -0.3882    0.0000 C   0  0  0  0  0  0  0  0  0  0  0  0
   -1.4084   -0.3020    0.0000 C   0  0  0  0  0  0  0  0  0  0  0  0
   -1.0728   -1.0556    0.0000 N   0  0  0  0  0  0  0  0  0  0  0  0
   -0.2658   -1.2272    0.0000 C   0  0  0  0  0  0  0  0  0  0  0  0
   -1.6859   -1.6077    0.0000 N   0  0  0  0  0  0  0  0  0  0  0  0
   -2.4004   -1.1952    0.0000 C   0  0  0  0  0  0  0  0  0  0  0  0
   -0.9959    0.4125    0.0000 C   0  0  0  0  0  0  0  0  0  0  0  0
   -1.4084    1.1270    0.0000 O   0  0  0  0  0  0  0  0  0  0  0  0
   -0.1709    0.4125    0.0000 N   0  0  0  0  0  0  0  0  0  0  0  0
    0.4125    0.9959    0.0000 C   0  0  0  0  0  0  0  0  0  0  0  0
    0.9959    0.4125    0.0000 C   0  0  0  0  0  0  0  0  0  0  0  0
    0.4125   -0.1709    0.0000 C   0  0  0  0  0  0  0  0  0  0  0  0
    1.4084    1.1270    0.0000 C   0  0  0  0  0  0  0  0  0  0  0  0
    2.2334    1.1270    0.0000 C   0  0  0  0  0  0  0  0  0  0  0  0
    2.6459    0.4125    0.0000 C   0  0  0  0  0  0  0  0  0  0  0  0
    2.2334   -0.3020    0.0000 C   0  0  0  0  0  0  0  0  0  0  0  0
    1.4084   -0.3020    0.0000 O   0  0  0  0  0  0  0  0  0  0  0  0
  1  2  1  0  0  0  0
  2  3  1  0  0  0  0
  3  4  1  0  0  0  0
  4  5  2  0  0  0  0
  4  6  1  0  0  0  0
  6  7  2  0  0  0  0
  7  8  1  0  0  0  0
  8  9  1  0  0  0  0
  8 10  1  0  0  0  0
 10 11  2  0  0  0  0
  6 11  1  0  0  0  0
  7 12  1  0  0  0  0
 12 13  2  0  0  0  0
 12 14  1  0  0  0  0
 14 15  1  0  0  0  0
 15 16  1  0  0  0  0
 16 17  1  0  0  0  0
 14 17  1  0  0  0  0
 16 18  1  0  0  0  0
 18 19  1  0  0  0  0
 19 20  1  0  0  0  0
 20 21  1  0  0  0  0
 21 22  1  0  0  0  0
 16 22  1  0  0  0  0
M  END
> <ID>
CPD_1212

$$$$
CPD_1217
  Mrv1822 09091914012D          

 25 27  0  0  0  0            999 V2000
   -5.5334    2.5559    0.0000 C   0  0  0  0  0  0  0  0  0  0  0  0
   -5.1209    1.8414    0.0000 C   0  0  0  0  0  0  0  0  0  0  0  0
   -5.8353    1.4289    0.0000 C   0  0  0  0  0  0  0  0  0  0  0  0
   -4.4064    2.2539    0.0000 C   0  0  0  0  0  0  0  0  0  0  0  0
   -4.7084    1.1270    0.0000 O   0  0  0  0  0  0  0  0  0  0  0  0
   -3.8834    1.1270    0.0000 C   0  0  0  0  0  0  0  0  0  0  0  0
   -3.4709    1.8414    0.0000 O   0  0  0  0  0  0  0  0  0  0  0  0
   -3.4709    0.4125    0.0000 C   0  0  0  0  0  0  0  0  0  0  0  0
   -2.6459    0.4125    0.0000 N   0  0  0  0  0  0  0  0  0  0  0  0
   -2.2334   -0.3020    0.0000 C   0  0  0  0  0  0  0  0  0  0  0  0
   -1.4084   -0.3020    0.0000 C   0  0  0  0  0  0  0  0  0  0  0  0
   -0.9959    0.4125    0.0000 C   0  0  0  0  0  0  0  0  0  0  0  0
   -1.4084    1.1270    0.0000 O   0  0  0  0  0  0  0  0  0  0  0  0
   -0.1709    0.4125    0.0000 N   0  0  0  0  0  0  0  0  0  0  0  0
    0.4125    0.9959    0.0000 C   0  0  0  0  0  0  0  0  0  0  0  0
    0.9959    0.4125    0.0000 C   0  0  0  0  0  0  0  0  0  0  0  0
    0.4125   -0.1709    0.0000 C   0  0  0  0  0  0  0  0  0  0  0  0
    1.4084    1.1270    0.0000 C   0  0  0  0  0  0  0  0  0  0  0  0
    2.2334    1.1270    0.0000 C   0  0  0  0  0  0  0  0  0  0  0  0
    2.6459    0.4125    0.0000 C   0  0  0  0  0  0  0  0  0  0  0  0
    2.2334   -0.3020    0.0000 C   0  0  0  0  0  0  0  0  0  0  0  0
    1.4084   -0.3020    0.0000 O   0  0  0  0  0  0  0  0  0  0  0  0
   -2.6459   -1.0164    0.0000 C   0  0  0  0  0  0  0  0  0  0  0  0
   -3.4709   -1.0164    0.0000 C   0  0  0  0  0  0  0  0  0  0  0  0
   -3.8834   -0.3020    0.0000 C   0  0  0  0  0  0  0  0  0  0  0  0
  1  2  1  0  0  0  0
  2  3  1  0  0  0  0
  2  4  1  0  0  0  0
  2  5  1  0  0  0  0
  5  6  1  0  0  0  0
  6  7  2  0  0  0  0
  6  8  1  0  0  0  0
  8  9  2  0  0  0  0
  9 10  1  0  0  0  0
 10 11  1  0  0  0  0
 11 12  1  0  0  0  0
 12 13  2  0  0  0  0
 12 14  1  0  0  0  0
 14 15  1  0  0  0  0
 15 16  1  0  0  0  0
 16 17  1  0  0  0  0
 14 17  1  0  0  0  0
 16 18  1  0  0  0  0
 18 19  1  0  0  0  0
 19 20  1  0  0  0  0
 20 21  1  0  0  0  0
 21 22  1  0  0  0  0
 16 22  1  0  0  0  0
 10 23  2  0  0  0  0
 23 24  1  0  0  0  0
 24 25  2  0  0  0  0
  8 25  1  0  0  0  0
M  END
> <ID>
CPD_1217

$$$$
CPD_1222
  Mrv1822 09091914012D          

 26 28  0  0  0  0            999 V2000
    0.7145   -2.8875    0.0000 C   0  0  0  0  0  0  0  0  0  0  0  0
    0.7145   -3.7125    0.0000 O   0  0  0  0  0  0  0  0  0  0  0  0
    1.4289   -4.1250    0.0000 C   0  0  0  0  0  0  0  0  0  0  0  0
    2.1434   -3.7125    0.0000 O   0  0  0  0  0  0  0  0  0  0  0  0
    1.4289   -4.9500    0.0000 C   0  0  0  0  0  0  0  0  0  0  0  0
    2.1434   -5.3625    0.0000 C   0  0  0  0  0  0  0  0  0  0  0  0
    2.8579   -4.9500    0.0000 F   0  0  0  0  0  0  0  0  0  0  0  0
    2.1434   -6.1875    0.0000 C   0  0  0  0  0  0  0  0  0  0  0  0
    1.4289   -6.6000    0.0000 C   0  0  0  0  0  0  0  0  0  0  0  0
    0.7145   -6.1875    0.0000 C   0  0  0  0  0  0  0  0  0  0  0  0
    0.7145   -5.3625    0.0000 C   0  0  0  0  0  0  0  0  0  0  0  0
    1.4289   -7.4250    0.0000 C   0  0  0  0  0  0  0  0  0  0  0  0
    2.1434   -7.8375    0.0000 C   0  0  0  0  0  0  0  0  0  0  0  0
    2.1434   -8.6625    0.0000 C   0  0  0  0  0  0  0  0  0  0  0  0
    1.4289   -9.0750    0.0000 C   0  0  0  0  0  0  0  0  0  0  0  0
    1.4289   -9.9000    0.0000 N   0  0  0  0  0  0  0  0  0  0  0  0
    2.1434  -10.3125    0.0000 C   0  0  0  0  0  0  0  0  0  0  0  0
    2.8579   -9.9000    0.0000 O   0  0  0  0  0  0  0  0  0  0  0  0
    2.1434  -11.1375    0.0000 C   0  0  0  0  0  0  0  0  0  0  0  0
    2.8579  -11.5500    0.0000 C   0  0  0  0  0  0  0  0  0  0  0  0
    2.8579  -12.3750    0.0000 C   0  0  0  0  0  0  0  0  0  0  0  0
    2.1434  -12.7875    0.0000 C   0  0  0  0  0  0  0  0  0  0  0  0
    1.4289  -12.3750    0.0000 N   0  0  0  0  0  0  0  0  0  0  0  0
    1.4289  -11.5500    0.0000 C   0  0  0  0  0  0  0  0  0  0  0  0
    0.7145   -8.6625    0.0000 C   0  0  0  0  0  0  0  0  0  0  0  0
    0.7145   -7.8375    0.0000 C   0  0  0  0  0  0  0  0  0  0  0  0
  1  2  1  0  0  0  0
  2  3  1  0  0  0  0
  3  4  2  0  0  0  0
  3  5  1  0  0  0  0
  5  6  2  0  0  0  0
  6  7  1  0  0  0  0
  6  8  1  0  0  0  0
  8  9  2  0  0  0  0
  9 10  1  0  0  0  0
 10 11  2  0  0  0  0
  5 11  1  0  0  0  0
  9 12  1  0  0  0  0
 12 13  2  0  0  0  0
 13 14  1  0  0  0  0
 14 15  2  0  0  0  0
 15 16  1  0  0  0  0
 16 17  1  0  0  0  0
 17 18  2  0  0  0  0
 17 19  1  0  0  0  0
 19 20  2  0  0  0  0
 20 21  1  0  0  0  0
 21 22  2  0  0  0  0
 22 23  1  0  0  0  0
 23 24  2  0  0  0  0
 19 24  1  0  0  0  0
 15 25  1  0  0  0  0
 25 26  2  0  0  0  0
 12 26  1  0  0  0  0
M  END
> <ID>
CPD_1222

$$$$
CPD_1227
  Mrv1822 09091914012D          

 31 33  0  0  0  0            999 V2000
    0.7145   -2.8875    0.0000 C   0  0  0  0  0  0  0  0  0  0  0  0
    0.7145   -3.7125    0.0000 O   0  0  0  0  0  0  0  0  0  0  0  0
    1.4289   -4.1250    0.0000 C   0  0  0  0  0  0  0  0  0  0  0  0
    2.1434   -3.7125    0.0000 O   0  0  0  0  0  0  0  0  0  0  0  0
    1.4289   -4.9500    0.0000 C   0  0  0  0  0  0  0  0  0  0  0  0
    2.1434   -5.3625    0.0000 C   0  0  0  0  0  0  0  0  0  0  0  0
    2.8579   -4.9500    0.0000 F   0  0  0  0  0  0  0  0  0  0  0  0
    2.1434   -6.1875    0.0000 C   0  0  0  0  0  0  0  0  0  0  0  0
    1.4289   -6.6000    0.0000 C   0  0  0  0  0  0  0  0  0  0  0  0
    0.7145   -6.1875    0.0000 C   0  0  0  0  0  0  0  0  0  0  0  0
    0.7145   -5.3625    0.0000 C   0  0  0  0  0  0  0  0  0  0  0  0
    1.4289   -7.4250    0.0000 C   0  0  0  0  0  0  0  0  0  0  0  0
    2.1434   -7.8375    0.0000 C   0  0  0  0  0  0  0  0  0  0  0  0
    2.1434   -8.6625    0.0000 C   0  0  0  0  0  0  0  0  0  0  0  0
    1.4289   -9.0750    0.0000 C   0  0  0  0  0  0  0  0  0  0  0  0
    1.4289   -9.9000    0.0000 N   0  0  0  0  0  0  0  0  0  0  0  0
    2.1434  -10.3125    0.0000 C   0  0  0  0  0  0  0  0  0  0  0  0
    2.8579   -9.9000    0.0000 O   0  0  0  0  0  0  0  0  0  0  0  0
    2.1434  -11.1375    0.0000 C   0  0  0  0  0  0  0  0  0  0  0  0
    2.8579  -11.5500    0.0000 C   0  0  0  0  0  0  0  0  0  0  0  0
    2.8579  -12.3750    0.0000 C   0  0  0  0  0  0  0  0  0  0  0  0
    2.1434  -12.7875    0.0000 C   0  0  0  0  0  0  0  0  0  0  0  0
    1.4289  -12.3750    0.0000 C   0  0  0  0  0  0  0  0  0  0  0  0
    1.4289  -11.5500    0.0000 C   0  0  0  0  0  0  0  0  0  0  0  0
    3.5724  -12.7875    0.0000 C   0  0  0  0  0  0  0  0  0  0  0  0
    3.1599  -13.5020    0.0000 C   0  0  0  0  0  0  0  0  0  0  0  0
    3.9849  -12.0730    0.0000 C   0  0  0  0  0  0  0  0  0  0  0  0
    4.2868  -13.2000    0.0000 C   0  0  0  0  0  0  0  0  0  0  0  0
    5.0013  -13.6125    0.0000 N   0  0  0  0  0  0  0  0  0  0  0  0
    0.7145   -8.6625    0.0000 C   0  0  0  0  0  0  0  0  0  0  0  0
    0.7145   -7.8375    0.0000 C   0  0  0  0  0  0  0  0  0  0  0  0
  1  2  1  0  0  0  0
  2  3  1  0  0  0  0
  3  4  2  0  0  0  0
  3  5  1  0  0  0  0
  5  6  2  0  0  0  0
  6  7  1  0  0  0  0
  6  8  1  0  0  0  0
  8  9  2  0  0  0  0
  9 10  1  0  0  0  0
 10 11  2  0  0  0  0
  5 11  1  0  0  0  0
  9 12  1  0  0  0  0
 12 13  2  0  0  0  0
 13 14  1  0  0  0  0
 14 15  2  0  0  0  0
 15 16  1  0  0  0  0
 16 17  1  0  0  0  0
 17 18  2  0  0  0  0
 17 19  1  0  0  0  0
 19 20  2  0  0  0  0
 20 21  1  0  0  0  0
 21 22  2  0  0  0  0
 22 23  1  0  0  0  0
 23 24  2  0  0  0  0
 19 24  1  0  0  0  0
 21 25  1  0  0  0  0
 25 26  1  0  0  0  0
 25 27  1  0  0  0  0
 25 28  1  0  0  0  0
 28 29  3  0  0  0  0
 15 30  1  0  0  0  0
 30 31  2  0  0  0  0
 12 31  1  0  0  0  0
M  END
> <ID>
CPD_1227

$$$$
CPD_1232
  Mrv1822 09091914012D          

 26 28  0  0  0  0            999 V2000
    5.7158   -1.6500    0.0000 F   0  0  0  0  0  0  0  0  0  0  0  0
    5.7158   -2.4750    0.0000 C   0  0  0  0  0  0  0  0  0  0  0  0
    6.4302   -2.8875    0.0000 C   0  0  0  0  0  0  0  0  0  0  0  0
    6.4302   -3.7125    0.0000 C   0  0  0  0  0  0  0  0  0  0  0  0
    7.1447   -4.1250    0.0000 F   0  0  0  0  0  0  0  0  0  0  0  0
    5.7158   -4.1250    0.0000 C   0  0  0  0  0  0  0  0  0  0  0  0
    5.7158   -4.9500    0.0000 C   0  0  0  0  0  0  0  0  0  0  0  0
    6.4302   -5.3625    0.0000 O   0  0  0  0  0  0  0  0  0  0  0  0
    6.4302   -6.1875    0.0000 C   0  0  0  0  0  0  0  0  0  0  0  0
    7.1447   -6.6000    0.0000 C   0  0  0  0  0  0  0  0  0  0  0  0
    7.1447   -7.4250    0.0000 C   0  0  0  0  0  0  0  0  0  0  0  0
    6.4302   -7.8375    0.0000 N   0  0  0  0  0  0  0  0  0  0  0  0
    5.7158   -7.4250    0.0000 C   0  0  0  0  0  0  0  0  0  0  0  0
    5.7158   -6.6000    0.0000 C   0  0  0  0  0  0  0  0  0  0  0  0
    6.4302   -8.6625    0.0000 C   0  0  0  0  0  0  0  0  0  0  0  0
    7.1447   -9.0750    0.0000 O   0  0  0  0  0  0  0  0  0  0  0  0
    5.7158   -9.0750    0.0000 C   0  0  0  0  0  0  0  0  0  0  0  0
    5.7158   -9.9000    0.0000 C   0  0  0  0  0  0  0  0  0  0  0  0
    5.0013  -10.3125    0.0000 C   0  0  0  0  0  0  0  0  0  0  0  0
    4.2868   -9.9000    0.0000 C   0  0  0  0  0  0  0  0  0  0  0  0
    3.5724  -10.3125    0.0000 Br  0  0  0  0  0  0  0  0  0  0  0  0
    4.2868   -9.0750    0.0000 C   0  0  0  0  0  0  0  0  0  0  0  0
    5.0013   -8.6625    0.0000 C   0  0  0  0  0  0  0  0  0  0  0  0
    5.0013   -7.8375    0.0000 Cl  0  0  0  0  0  0  0  0  0  0  0  0
    5.0013   -3.7125    0.0000 C   0  0  0  0  0  0  0  0  0  0  0  0
    5.0013   -2.8875    0.0000 C   0  0  0  0  0  0  0  0  0  0  0  0
  1  2  1  0  0  0  0
  2  3  2  0  0  0  0
  3  4  1  0  0  0  0
  4  5  1  0  0  0  0
  4  6  2  0  0  0  0
  6  7  1  0  0  0  0
  7  8  1  0  0  0  0
  8  9  1  0  0  0  0
  9 10  1  0  0  0  0
 10 11  1  0  0  0  0
 11 12  1  0  0  0  0
 12 13  1  0  0  0  0
 13 14  1  0  0  0  0
  9 14  1  0  0  0  0
 12 15  1  0  0  0  0
 15 16  2  0  0  0  0
 15 17  1  0  0  0  0
 17 18  2  0  0  0  0
 18 19  1  0  0  0  0
 19 20  2  0  0  0  0
 20 21  1  0  0  0  0
 20 22  1  0  0  0  0
 22 23  2  0  0  0  0
 17 23  1  0  0  0  0
 23 24  1  0  0  0  0
  6 25  1  0  0  0  0
 25 26  2  0  0  0  0
  2 26  1  0  0  0  0
M  END
> <ID>
CPD_1232

$$$$
CPD_1237
  Mrv1822 09091914012D          

 27 29  0  0  1  0            999 V2000
    0.8212   -2.9491    0.0000 C   0  0  0  0  0  0  0  0  0  0  0  0
    0.8212   -3.7741    0.0000 O   0  0  0  0  0  0  0  0  0  0  0  0
    0.1067   -4.1866    0.0000 C   0  0  0  0  0  0  0  0  0  0  0  0
   -0.6078   -3.7741    0.0000 O   0  0  0  0  0  0  0  0  0  0  0  0
    0.1067   -5.0116    0.0000 N   0  0  0  0  0  0  0  0  0  0  0  0
    0.7741   -5.4965    0.0000 C   0  0  0  0  0  0  0  0  0  0  0  0
    0.5192   -6.2812    0.0000 C   0  0  0  0  0  0  0  0  0  0  0  0
   -0.3058   -6.2812    0.0000 C   0  0  0  0  0  0  0  0  0  0  0  0
   -0.5607   -5.4965    0.0000 C   0  0  1  0  0  0  0  0  0  0  0  0
   -1.3454   -5.2416    0.0000 C   0  0  0  0  0  0  0  0  0  0  0  0
   -1.5169   -4.4346    0.0000 O   0  0  0  0  0  0  0  0  0  0  0  0
   -1.9584   -5.7936    0.0000 N   0  0  0  0  0  0  0  0  0  0  0  0
   -1.7869   -6.6006    0.0000 C   0  0  0  0  0  0  0  0  0  0  0  0
   -2.4000   -7.1526    0.0000 C   0  0  0  0  0  0  0  0  0  0  0  0
   -3.1846   -6.8977    0.0000 C   0  0  0  0  0  0  0  0  0  0  0  0
   -3.3562   -6.0907    0.0000 C   0  0  0  0  0  0  0  0  0  0  0  0
   -2.7431   -5.5387    0.0000 C   0  0  0  0  0  0  0  0  0  0  0  0
   -3.7977   -7.4497    0.0000 O   0  0  0  0  0  0  0  0  0  0  0  0
   -3.6262   -8.2567    0.0000 C   0  0  0  0  0  0  0  0  0  0  0  0
   -4.2393   -8.8087    0.0000 C   0  0  0  0  0  0  0  0  0  0  0  0
   -4.0678   -9.6157    0.0000 C   0  0  0  0  0  0  0  0  0  0  0  0
   -3.2832   -9.8706    0.0000 F   0  0  0  0  0  0  0  0  0  0  0  0
   -4.6809  -10.1677    0.0000 C   0  0  0  0  0  0  0  0  0  0  0  0
   -5.4655   -9.9128    0.0000 C   0  0  0  0  0  0  0  0  0  0  0  0
   -6.0786  -10.4648    0.0000 F   0  0  0  0  0  0  0  0  0  0  0  0
   -5.6370   -9.1058    0.0000 C   0  0  0  0  0  0  0  0  0  0  0  0
   -5.0239   -8.5538    0.0000 C   0  0  0  0  0  0  0  0  0  0  0  0
  1  2  1  0  0  0  0
  2  3  1  0  0  0  0
  3  4  2  0  0  0  0
  3  5  1  0  0  0  0
  5  6  1  0  0  0  0
  6  7  1  0  0  0  0
  7  8  1  0  0  0  0
  9  8  1  0  0  0  0
  9  5  1  0  0  0  0
  9 10  1  1  0  0  0
 10 11  2  0  0  0  0
 10 12  1  0  0  0  0
 12 13  1  0  0  0  0
 13 14  1  0  0  0  0
 14 15  1  0  0  0  0
 15 16  1  0  0  0  0
 16 17  1  0  0  0  0
 12 17  1  0  0  0  0
 15 18  1  0  0  0  0
 18 19  1  0  0  0  0
 19 20  1  0  0  0  0
 20 21  2  0  0  0  0
 21 22  1  0  0  0  0
 21 23  1  0  0  0  0
 23 24  2  0  0  0  0
 24 25  1  0  0  0  0
 24 26  1  0  0  0  0
 26 27  2  0  0  0  0
 20 27  1  0  0  0  0
M  END
> <ID>
CPD_1237

$$$$
CPD_1242
  Mrv1822 09091914012D          

 26 29  0  0  0  0            999 V2000
   -0.5837   -1.4124    0.0000 C   0  0  0  0  0  0  0  0  0  0  0  0
   -0.1712   -0.6979    0.0000 C   0  0  0  0  0  0  0  0  0  0  0  0
   -0.5837    0.0165    0.0000 O   0  0  0  0  0  0  0  0  0  0  0  0
    0.6538   -0.6979    0.0000 N   0  0  0  0  0  0  0  0  0  0  0  0
    1.1387   -0.0305    0.0000 C   0  0  0  0  0  0  0  0  0  0  0  0
    1.9233   -0.2854    0.0000 C   0  0  0  0  0  0  0  0  0  0  0  0
    2.6378    0.1271    0.0000 C   0  0  0  0  0  0  0  0  0  0  0  0
    3.3523   -0.2854    0.0000 C   0  0  0  0  0  0  0  0  0  0  0  0
    3.3523   -1.1104    0.0000 C   0  0  0  0  0  0  0  0  0  0  0  0
    2.6378   -1.5229    0.0000 C   0  0  0  0  0  0  0  0  0  0  0  0
    1.9233   -1.1104    0.0000 C   0  0  0  0  0  0  0  0  0  0  0  0
    1.1387   -1.3654    0.0000 N   0  0  0  0  0  0  0  0  0  0  0  0
    4.0668    0.1271    0.0000 C   0  0  0  0  0  0  0  0  0  0  0  0
    4.7812   -0.2854    0.0000 O   0  0  0  0  0  0  0  0  0  0  0  0
    4.0668    0.9521    0.0000 N   0  0  0  0  0  0  0  0  0  0  0  0
    3.3993    1.4370    0.0000 C   0  0  0  0  0  0  0  0  0  0  0  0
    3.6543    2.2216    0.0000 C   0  0  0  0  0  0  0  0  0  0  0  0
    4.4793    2.2216    0.0000 C   0  0  0  0  0  0  0  0  0  0  0  0
    4.7342    1.4370    0.0000 C   0  0  0  0  0  0  0  0  0  0  0  0
    5.5188    1.1820    0.0000 C   0  0  0  0  0  0  0  0  0  0  0  0
    5.6903    0.3751    0.0000 O   0  0  0  0  0  0  0  0  0  0  0  0
    6.1319    1.7341    0.0000 N   0  0  0  0  0  0  0  0  0  0  0  0
    6.0457    2.5546    0.0000 C   0  0  0  0  0  0  0  0  0  0  0  0
    6.7993    2.8901    0.0000 C   0  0  0  0  0  0  0  0  0  0  0  0
    7.3514    2.2770    0.0000 C   0  0  0  0  0  0  0  0  0  0  0  0
    6.9389    1.5625    0.0000 C   0  0  0  0  0  0  0  0  0  0  0  0
  1  2  1  0  0  0  0
  2  3  2  0  0  0  0
  2  4  1  0  0  0  0
  4  5  1  0  0  0  0
  5  6  2  0  0  0  0
  6  7  1  0  0  0  0
  7  8  2  0  0  0  0
  8  9  1  0  0  0  0
  9 10  2  0  0  0  0
 10 11  1  0  0  0  0
  6 11  1  0  0  0  0
 11 12  2  0  0  0  0
  4 12  1  0  0  0  0
  8 13  1  0  0  0  0
 13 14  2  0  0  0  0
 13 15  1  0  0  0  0
 15 16  1  0  0  0  0
 16 17  1  0  0  0  0
 17 18  1  0  0  0  0
 18 19  1  0  0  0  0
 15 19  1  0  0  0  0
 19 20  1  0  0  0  0
 20 21  2  0  0  0  0
 20 22  1  0  0  0  0
 22 23  1  0  0  0  0
 23 24  1  0  0  0  0
 24 25  1  0  0  0  0
 25 26  1  0  0  0  0
 22 26  1  0  0  0  0
M  END
> <ID>
CPD_1242

$$$$
CPD_1247
  Mrv1822 09091914012D          

 24 26  0  0  0  0            999 V2000
    0.7145   -2.0625    0.0000 F   0  0  0  0  0  0  0  0  0  0  0  0
    0.7145   -1.2375    0.0000 C   0  0  0  0  0  0  0  0  0  0  0  0
    1.5395   -1.2375    0.0000 F   0  0  0  0  0  0  0  0  0  0  0  0
   -0.1105   -1.2375    0.0000 F   0  0  0  0  0  0  0  0  0  0  0  0
    0.7145   -0.4125    0.0000 C   0  0  0  0  0  0  0  0  0  0  0  0
   -0.0000    0.0000    0.0000 C   0  0  0  0  0  0  0  0  0  0  0  0
   -0.0000    0.8250    0.0000 C   0  0  0  0  0  0  0  0  0  0  0  0
    0.7145    1.2375    0.0000 C   0  0  0  0  0  0  0  0  0  0  0  0
    1.4289    0.8250    0.0000 N   0  0  0  0  0  0  0  0  0  0  0  0
    1.4289    0.0000    0.0000 C   0  0  0  0  0  0  0  0  0  0  0  0
   -0.7145   -0.4125    0.0000 C   0  0  0  0  0  0  0  0  0  0  0  0
   -1.4289    0.0000    0.0000 O   0  0  0  0  0  0  0  0  0  0  0  0
   -0.7145   -1.2375    0.0000 N   0  0  0  0  0  0  0  0  0  0  0  0
   -0.0470   -1.7224    0.0000 C   0  0  0  0  0  0  0  0  0  0  0  0
   -0.3020   -2.5070    0.0000 C   0  0  0  0  0  0  0  0  0  0  0  0
   -1.1270   -2.5070    0.0000 C   0  0  0  0  0  0  0  0  0  0  0  0
   -1.3819   -1.7224    0.0000 C   0  0  0  0  0  0  0  0  0  0  0  0
   -2.1665   -1.4675    0.0000 C   0  0  0  0  0  0  0  0  0  0  0  0
   -2.3381   -0.6605    0.0000 O   0  0  0  0  0  0  0  0  0  0  0  0
   -2.7796   -2.0195    0.0000 N   0  0  0  0  0  0  0  0  0  0  0  0
   -2.6934   -2.8400    0.0000 C   0  0  0  0  0  0  0  0  0  0  0  0
   -3.4471   -3.1756    0.0000 C   0  0  0  0  0  0  0  0  0  0  0  0
   -3.9991   -2.5625    0.0000 C   0  0  0  0  0  0  0  0  0  0  0  0
   -3.5866   -1.8480    0.0000 C   0  0  0  0  0  0  0  0  0  0  0  0
  1  2  1  0  0  0  0
  2  3  1  0  0  0  0
  2  4  1  0  0  0  0
  2  5  1  0  0  0  0
  5  6  2  0  0  0  0
  6  7  1  0  0  0  0
  7  8  2  0  0  0  0
  8  9  1  0  0  0  0
  9 10  2  0  0  0  0
  5 10  1  0  0  0  0
  6 11  1  0  0  0  0
 11 12  2  0  0  0  0
 11 13  1  0  0  0  0
 13 14  1  0  0  0  0
 14 15  1  0  0  0  0
 15 16  1  0  0  0  0
 16 17  1  0  0  0  0
 13 17  1  0  0  0  0
 17 18  1  0  0  0  0
 18 19  2  0  0  0  0
 18 20  1  0  0  0  0
 20 21  1  0  0  0  0
 21 22  1  0  0  0  0
 22 23  1  0  0  0  0
 23 24  1  0  0  0  0
 20 24  1  0  0  0  0
M  END
> <ID>
CPD_1247

$$$$
CPD_1252
  Mrv1822 09091914012D          

 25 26  0  0  0  0            999 V2000
    2.7512    5.5902    0.0000 C   0  0  0  0  0  0  0  0  0  0  0  0
    3.4656    6.0027    0.0000 N   0  0  0  0  0  0  0  0  0  0  0  0
    3.4656    6.8277    0.0000 C   0  0  0  0  0  0  0  0  0  0  0  0
    4.1801    7.2402    0.0000 O   0  0  0  0  0  0  0  0  0  0  0  0
    2.7512    7.2402    0.0000 O   0  0  0  0  0  0  0  0  0  0  0  0
    2.7512    8.0652    0.0000 C   0  0  0  0  0  0  0  0  0  0  0  0
    2.7512    8.8902    0.0000 C   0  0  0  0  0  0  0  0  0  0  0  0
    1.9262    8.0652    0.0000 C   0  0  0  0  0  0  0  0  0  0  0  0
    3.5762    8.0652    0.0000 C   0  0  0  0  0  0  0  0  0  0  0  0
    4.1801    5.5902    0.0000 C   0  0  0  0  0  0  0  0  0  0  0  0
    4.8946    6.0027    0.0000 C   0  0  0  0  0  0  0  0  0  0  0  0
    5.6091    5.5902    0.0000 C   0  0  0  0  0  0  0  0  0  0  0  0
    5.6091    4.7652    0.0000 C   0  0  0  0  0  0  0  0  0  0  0  0
    4.8946    4.3527    0.0000 C   0  0  0  0  0  0  0  0  0  0  0  0
    4.8946    3.5277    0.0000 N   0  0  0  0  0  0  0  0  0  0  0  0
    4.1801    3.1152    0.0000 C   0  0  0  0  0  0  0  0  0  0  0  0
    3.4656    3.5277    0.0000 O   0  0  0  0  0  0  0  0  0  0  0  0
    4.1801    2.2902    0.0000 C   0  0  0  0  0  0  0  0  0  0  0  0
    4.8476    1.8053    0.0000 C   0  0  0  0  0  0  0  0  0  0  0  0
    4.5926    1.0206    0.0000 S   0  0  0  0  0  0  0  0  0  0  0  0
    3.7676    1.0206    0.0000 C   0  0  0  0  0  0  0  0  0  0  0  0
    3.2827    0.3532    0.0000 C   0  0  0  0  0  0  0  0  0  0  0  0
    3.5127    1.8053    0.0000 C   0  0  0  0  0  0  0  0  0  0  0  0
    2.7281    2.0602    0.0000 C   0  0  0  0  0  0  0  0  0  0  0  0
    4.1801    4.7652    0.0000 C   0  0  0  0  0  0  0  0  0  0  0  0
  1  2  1  0  0  0  0
  2  3  1  0  0  0  0
  3  4  2  0  0  0  0
  3  5  1  0  0  0  0
  5  6  1  0  0  0  0
  6  7  1  0  0  0  0
  6  8  1  0  0  0  0
  6  9  1  0  0  0  0
  2 10  1  0  0  0  0
 10 11  2  0  0  0  0
 11 12  1  0  0  0  0
 12 13  2  0  0  0  0
 13 14  1  0  0  0  0
 14 15  1  0  0  0  0
 15 16  1  0  0  0  0
 16 17  2  0  0  0  0
 16 18  1  0  0  0  0
 18 19  2  0  0  0  0
 19 20  1  0  0  0  0
 20 21  1  0  0  0  0
 21 22  1  0  0  0  0
 21 23  2  0  0  0  0
 18 23  1  0  0  0  0
 23 24  1  0  0  0  0
 14 25  2  0  0  0  0
 10 25  1  0  0  0  0
M  END
> <ID>
CPD_1252

$$$$
CPD_1257
  Mrv1822 09091914012D          

 33 35  0  0  0  0            999 V2000
   -1.4289   -0.0000    0.0000 C   0  0  0  0  0  0  0  0  0  0  0  0
   -0.7145   -0.4125    0.0000 O   0  0  0  0  0  0  0  0  0  0  0  0
   -0.7145   -1.2375    0.0000 C   0  0  0  0  0  0  0  0  0  0  0  0
    0.0000   -1.6500    0.0000 C   0  0  0  0  0  0  0  0  0  0  0  0
    0.7145   -1.2375    0.0000 C   0  0  0  0  0  0  0  0  0  0  0  0
   -0.0000   -2.4750    0.0000 C   0  0  0  0  0  0  0  0  0  0  0  0
   -0.7145   -2.8875    0.0000 C   0  0  0  0  0  0  0  0  0  0  0  0
   -1.4289   -2.4750    0.0000 C   0  0  0  0  0  0  0  0  0  0  0  0
   -1.4289   -1.6500    0.0000 C   0  0  0  0  0  0  0  0  0  0  0  0
   -0.7145   -3.7125    0.0000 C   0  0  0  0  0  0  0  0  0  0  0  0
   -0.0000   -4.1250    0.0000 C   0  0  0  0  0  0  0  0  0  0  0  0
   -0.0000   -4.9500    0.0000 C   0  0  0  0  0  0  0  0  0  0  0  0
   -0.7145   -5.3625    0.0000 C   0  0  0  0  0  0  0  0  0  0  0  0
   -1.4289   -4.9500    0.0000 C   0  0  0  0  0  0  0  0  0  0  0  0
   -1.4289   -4.1250    0.0000 C   0  0  0  0  0  0  0  0  0  0  0  0
    0.7145   -3.7125    0.0000 C   0  0  0  0  0  0  0  0  0  0  0  0
    1.4289   -4.1250    0.0000 O   0  0  0  0  0  0  0  0  0  0  0  0
    0.7145   -2.8875    0.0000 N   0  0  0  0  0  0  0  0  0  0  0  0
    1.4289   -2.4750    0.0000 C   0  0  0  0  0  0  0  0  0  0  0  0
    1.4289   -1.6500    0.0000 C   0  0  0  0  0  0  0  0  0  0  0  0
    2.1434   -1.2375    0.0000 C   0  0  0  0  0  0  0  0  0  0  0  0
    2.8579   -1.6500    0.0000 C   0  0  0  0  0  0  0  0  0  0  0  0
    2.8579   -2.4750    0.0000 C   0  0  0  0  0  0  0  0  0  0  0  0
    2.1434   -2.8875    0.0000 C   0  0  0  0  0  0  0  0  0  0  0  0
    2.1434   -0.4125    0.0000 N   0  0  0  0  0  0  0  0  0  0  0  0
    2.8579   -0.0000    0.0000 C   0  0  0  0  0  0  0  0  0  0  0  0
    1.4289   -0.0000    0.0000 C   0  0  0  0  0  0  0  0  0  0  0  0
    0.7145   -0.4125    0.0000 O   0  0  0  0  0  0  0  0  0  0  0  0
    1.4289    0.8250    0.0000 O   0  0  0  0  0  0  0  0  0  0  0  0
    2.1434    1.2375    0.0000 C   0  0  0  0  0  0  0  0  0  0  0  0
    2.8579    1.6500    0.0000 C   0  0  0  0  0  0  0  0  0  0  0  0
    2.5559    0.5230    0.0000 C   0  0  0  0  0  0  0  0  0  0  0  0
    1.7309    1.9520    0.0000 C   0  0  0  0  0  0  0  0  0  0  0  0
  1  2  1  0  0  0  0
  2  3  1  0  0  0  0
  3  4  2  0  0  0  0
  4  5  1  0  0  0  0
  4  6  1  0  0  0  0
  6  7  2  0  0  0  0
  7  8  1  0  0  0  0
  8  9  2  0  0  0  0
  3  9  1  0  0  0  0
  7 10  1  0  0  0  0
 10 11  2  0  0  0  0
 11 12  1  0  0  0  0
 12 13  2  0  0  0  0
 13 14  1  0  0  0  0
 14 15  2  0  0  0  0
 10 15  1  0  0  0  0
 11 16  1  0  0  0  0
 16 17  2  0  0  0  0
 16 18  1  0  0  0  0
 18 19  1  0  0  0  0
 19 20  2  0  0  0  0
 20 21  1  0  0  0  0
 21 22  2  0  0  0  0
 22 23  1  0  0  0  0
 23 24  2  0  0  0  0
 19 24  1  0  0  0  0
 21 25  1  0  0  0  0
 25 26  1  0  0  0  0
 25 27  1  0  0  0  0
 27 28  2  0  0  0  0
 27 29  1  0  0  0  0
 29 30  1  0  0  0  0
 30 31  1  0  0  0  0
 30 32  1  0  0  0  0
 30 33  1  0  0  0  0
M  END
> <ID>
CPD_1257

$$$$
CPD_1262
  Mrv1822 09091914012D          

 32 35  0  0  0  0            999 V2000
   -2.6462   -3.5558    0.0000 C   0  0  0  0  0  0  0  0  0  0  0  0
   -3.0587   -2.8414    0.0000 N   0  0  0  0  0  0  0  0  0  0  0  0
   -3.8837   -2.8414    0.0000 C   0  0  0  0  0  0  0  0  0  0  0  0
   -4.2962   -2.1269    0.0000 O   0  0  0  0  0  0  0  0  0  0  0  0
   -4.2962   -3.5558    0.0000 O   0  0  0  0  0  0  0  0  0  0  0  0
   -5.1212   -3.5558    0.0000 C   0  0  0  0  0  0  0  0  0  0  0  0
   -5.9462   -3.5558    0.0000 C   0  0  0  0  0  0  0  0  0  0  0  0
   -5.1212   -4.3808    0.0000 C   0  0  0  0  0  0  0  0  0  0  0  0
   -5.1212   -2.7308    0.0000 C   0  0  0  0  0  0  0  0  0  0  0  0
   -2.6462   -2.1269    0.0000 C   0  0  0  0  0  0  0  0  0  0  0  0
   -3.0587   -1.4124    0.0000 C   0  0  0  0  0  0  0  0  0  0  0  0
   -2.6462   -0.6979    0.0000 C   0  0  0  0  0  0  0  0  0  0  0  0
   -1.8212   -0.6979    0.0000 C   0  0  0  0  0  0  0  0  0  0  0  0
   -1.4087   -1.4124    0.0000 C   0  0  0  0  0  0  0  0  0  0  0  0
   -0.5837   -1.4124    0.0000 N   0  0  0  0  0  0  0  0  0  0  0  0
   -0.1712   -0.6979    0.0000 C   0  0  0  0  0  0  0  0  0  0  0  0
   -0.5837    0.0165    0.0000 O   0  0  0  0  0  0  0  0  0  0  0  0
    0.6538   -0.6979    0.0000 C   0  0  0  0  0  0  0  0  0  0  0  0
    1.1387   -0.0305    0.0000 C   0  0  0  0  0  0  0  0  0  0  0  0
    0.8838    0.7541    0.0000 N   0  0  0  0  0  0  0  0  0  0  0  0
    0.0992    1.0091    0.0000 C   0  0  0  0  0  0  0  0  0  0  0  0
    0.0992    1.8341    0.0000 C   0  0  0  0  0  0  0  0  0  0  0  0
    0.8838    2.0890    0.0000 C   0  0  0  0  0  0  0  0  0  0  0  0
    1.3687    1.4216    0.0000 C   0  0  0  0  0  0  0  0  0  0  0  0
    1.9233   -0.2854    0.0000 C   0  0  0  0  0  0  0  0  0  0  0  0
    2.6378    0.1271    0.0000 C   0  0  0  0  0  0  0  0  0  0  0  0
    3.3523   -0.2854    0.0000 C   0  0  0  0  0  0  0  0  0  0  0  0
    3.3523   -1.1104    0.0000 C   0  0  0  0  0  0  0  0  0  0  0  0
    2.6378   -1.5229    0.0000 N   0  0  0  0  0  0  0  0  0  0  0  0
    1.9233   -1.1104    0.0000 C   0  0  0  0  0  0  0  0  0  0  0  0
    1.1387   -1.3654    0.0000 S   0  0  0  0  0  0  0  0  0  0  0  0
   -1.8212   -2.1269    0.0000 C   0  0  0  0  0  0  0  0  0  0  0  0
  1  2  1  0  0  0  0
  2  3  1  0  0  0  0
  3  4  2  0  0  0  0
  3  5  1  0  0  0  0
  5  6  1  0  0  0  0
  6  7  1  0  0  0  0
  6  8  1  0  0  0  0
  6  9  1  0  0  0  0
  2 10  1  0  0  0  0
 10 11  2  0  0  0  0
 11 12  1  0  0  0  0
 12 13  2  0  0  0  0
 13 14  1  0  0  0  0
 14 15  1  0  0  0  0
 15 16  1  0  0  0  0
 16 17  2  0  0  0  0
 16 18  1  0  0  0  0
 18 19  2  0  0  0  0
 19 20  1  0  0  0  0
 20 21  1  0  0  0  0
 21 22  2  0  0  0  0
 22 23  1  0  0  0  0
 23 24  2  0  0  0  0
 20 24  1  0  0  0  0
 19 25  1  0  0  0  0
 25 26  2  0  0  0  0
 26 27  1  0  0  0  0
 27 28  2  0  0  0  0
 28 29  1  0  0  0  0
 29 30  2  0  0  0  0
 25 30  1  0  0  0  0
 30 31  1  0  0  0  0
 18 31  1  0  0  0  0
 14 32  2  0  0  0  0
 10 32  1  0  0  0  0
M  END
> <ID>
CPD_1262

$$$$
CPD_1267
  Mrv1822 09091914012D          

 25 27  0  0  0  0            999 V2000
   -1.0499   -5.2700    0.0000 C   0  0  0  0  0  0  0  0  0  0  0  0
   -0.2249   -5.2700    0.0000 C   0  0  0  0  0  0  0  0  0  0  0  0
    0.1876   -4.5555    0.0000 O   0  0  0  0  0  0  0  0  0  0  0  0
    1.0126   -4.5555    0.0000 C   0  0  0  0  0  0  0  0  0  0  0  0
    1.5959   -3.9721    0.0000 C   0  0  0  0  0  0  0  0  0  0  0  0
    1.5959   -3.1471    0.0000 N   0  0  0  0  0  0  0  0  0  0  0  0
    0.8815   -2.7346    0.0000 C   0  0  0  0  0  0  0  0  0  0  0  0
    0.1670   -3.1471    0.0000 C   0  0  0  0  0  0  0  0  0  0  0  0
   -0.5475   -2.7346    0.0000 O   0  0  0  0  0  0  0  0  0  0  0  0
    2.3104   -2.7346    0.0000 C   0  0  0  0  0  0  0  0  0  0  0  0
    3.0249   -3.1471    0.0000 O   0  0  0  0  0  0  0  0  0  0  0  0
    2.3104   -1.9096    0.0000 C   0  0  0  0  0  0  0  0  0  0  0  0
    1.6430   -1.4247    0.0000 N   0  0  0  0  0  0  0  0  0  0  0  0
    1.8979   -0.6401    0.0000 N   0  0  0  0  0  0  0  0  0  0  0  0
    1.4854    0.0744    0.0000 C   0  0  0  0  0  0  0  0  0  0  0  0
    1.8979    0.7888    0.0000 C   0  0  0  0  0  0  0  0  0  0  0  0
    2.7229    0.7888    0.0000 C   0  0  0  0  0  0  0  0  0  0  0  0
    3.1354    1.5033    0.0000 Br  0  0  0  0  0  0  0  0  0  0  0  0
    3.1354    0.0744    0.0000 C   0  0  0  0  0  0  0  0  0  0  0  0
    2.7229   -0.6401    0.0000 C   0  0  0  0  0  0  0  0  0  0  0  0
    2.9779   -1.4247    0.0000 C   0  0  0  0  0  0  0  0  0  0  0  0
    2.1793   -4.5555    0.0000 C   0  0  0  0  0  0  0  0  0  0  0  0
    3.0043   -4.5555    0.0000 O   0  0  0  0  0  0  0  0  0  0  0  0
    1.5959   -5.1389    0.0000 C   0  0  0  0  0  0  0  0  0  0  0  0
    1.5959   -5.9639    0.0000 O   0  0  0  0  0  0  0  0  0  0  0  0
  1  2  1  0  0  0  0
  2  3  1  0  0  0  0
  3  4  1  0  0  0  0
  4  5  2  0  0  0  0
  5  6  1  0  0  0  0
  6  7  1  0  0  0  0
  7  8  1  0  0  0  0
  8  9  1  0  0  0  0
  6 10  1  0  0  0  0
 10 11  2  0  0  0  0
 10 12  1  0  0  0  0
 12 13  2  0  0  0  0
 13 14  1  0  0  0  0
 14 15  1  0  0  0  0
 15 16  2  0  0  0  0
 16 17  1  0  0  0  0
 17 18  1  0  0  0  0
 17 19  2  0  0  0  0
 19 20  1  0  0  0  0
 14 20  1  0  0  0  0
 20 21  2  0  0  0  0
 12 21  1  0  0  0  0
  5 22  1  0  0  0  0
 22 23  2  0  0  0  0
 22 24  1  0  0  0  0
  4 24  1  0  0  0  0
 24 25  2  0  0  0  0
M  END
> <ID>
CPD_1267

$$$$
CPD_1272
  Mrv1822 09091914012D          

 26 26  0  0  0  0            999 V2000
    1.3967    2.4071    0.0000 C   0  0  0  0  0  0  0  0  0  0  0  0
    0.5717    2.4071    0.0000 C   0  0  0  0  0  0  0  0  0  0  0  0
    0.1592    1.6927    0.0000 O   0  0  0  0  0  0  0  0  0  0  0  0
   -0.6658    1.6927    0.0000 C   0  0  0  0  0  0  0  0  0  0  0  0
   -1.2491    1.1093    0.0000 C   0  0  0  0  0  0  0  0  0  0  0  0
   -1.2491    0.2843    0.0000 N   0  0  0  0  0  0  0  0  0  0  0  0
   -1.9636   -0.1282    0.0000 C   0  0  0  0  0  0  0  0  0  0  0  0
   -1.9636   -0.9532    0.0000 C   0  0  0  0  0  0  0  0  0  0  0  0
   -2.6781   -1.3657    0.0000 O   0  0  0  0  0  0  0  0  0  0  0  0
   -0.5347   -0.1282    0.0000 C   0  0  0  0  0  0  0  0  0  0  0  0
    0.1798    0.2843    0.0000 O   0  0  0  0  0  0  0  0  0  0  0  0
   -0.5347   -0.9532    0.0000 C   0  0  0  0  0  0  0  0  0  0  0  0
    0.1798   -1.3657    0.0000 C   0  0  0  0  0  0  0  0  0  0  0  0
    0.1798   -2.1907    0.0000 C   0  0  0  0  0  0  0  0  0  0  0  0
    0.8943   -2.6032    0.0000 C   0  0  0  0  0  0  0  0  0  0  0  0
    0.8943   -3.4282    0.0000 C   0  0  0  0  0  0  0  0  0  0  0  0
    1.6087   -3.8407    0.0000 O   0  0  0  0  0  0  0  0  0  0  0  0
    0.1798   -3.8407    0.0000 O   0  0  0  0  0  0  0  0  0  0  0  0
    0.8943   -0.9532    0.0000 C   0  0  0  0  0  0  0  0  0  0  0  0
    1.3068   -1.6677    0.0000 C   0  0  0  0  0  0  0  0  0  0  0  0
    0.4818   -0.2387    0.0000 C   0  0  0  0  0  0  0  0  0  0  0  0
    1.6087   -0.5407    0.0000 C   0  0  0  0  0  0  0  0  0  0  0  0
   -1.8325    1.6927    0.0000 C   0  0  0  0  0  0  0  0  0  0  0  0
   -2.6575    1.6927    0.0000 O   0  0  0  0  0  0  0  0  0  0  0  0
   -1.2491    2.2760    0.0000 C   0  0  0  0  0  0  0  0  0  0  0  0
   -1.2491    3.1010    0.0000 O   0  0  0  0  0  0  0  0  0  0  0  0
  1  2  1  0  0  0  0
  2  3  1  0  0  0  0
  3  4  1  0  0  0  0
  4  5  2  0  0  0  0
  5  6  1  0  0  0  0
  6  7  1  0  0  0  0
  7  8  1  0  0  0  0
  8  9  1  0  0  0  0
  6 10  1  0  0  0  0
 10 11  2  0  0  0  0
 10 12  1  0  0  0  0
 12 13  1  0  0  0  0
 13 14  1  0  0  0  0
 14 15  1  0  0  0  0
 15 16  1  0  0  0  0
 16 17  1  0  0  0  0
 16 18  2  0  0  0  0
 13 19  1  0  0  0  0
 19 20  1  0  0  0  0
 19 21  1  0  0  0  0
 19 22  1  0  0  0  0
  5 23  1  0  0  0  0
 23 24  2  0  0  0  0
 23 25  1  0  0  0  0
  4 25  1  0  0  0  0
 25 26  2  0  0  0  0
M  END
> <ID>
CPD_1272

$$$$
CPD_1277
  Mrv1822 09091914012D          

 28 30  0  0  0  0            999 V2000
   -1.4289   -4.9500    0.0000 C   0  0  0  0  0  0  0  0  0  0  0  0
   -0.7145   -5.3625    0.0000 N   0  0  0  0  0  0  0  0  0  0  0  0
    0.0000   -4.9500    0.0000 C   0  0  0  0  0  0  0  0  0  0  0  0
    0.7145   -5.3625    0.0000 C   0  0  0  0  0  0  0  0  0  0  0  0
    0.7145   -6.1875    0.0000 N   0  0  0  0  0  0  0  0  0  0  0  0
    1.4289   -6.6000    0.0000 C   0  0  0  0  0  0  0  0  0  0  0  0
    2.1434   -6.1875    0.0000 C   0  0  0  0  0  0  0  0  0  0  0  0
    2.8579   -6.6000    0.0000 N   0  0  0  0  0  0  0  0  0  0  0  0
    3.5724   -6.1875    0.0000 C   0  0  0  0  0  0  0  0  0  0  0  0
    3.5724   -5.3625    0.0000 O   0  0  0  0  0  0  0  0  0  0  0  0
    4.2868   -6.6000    0.0000 C   0  0  0  0  0  0  0  0  0  0  0  0
    5.0013   -6.1875    0.0000 C   0  0  0  0  0  0  0  0  0  0  0  0
    5.7158   -6.6000    0.0000 C   0  0  0  0  0  0  0  0  0  0  0  0
    5.7158   -7.4250    0.0000 C   0  0  0  0  0  0  0  0  0  0  0  0
    6.4302   -7.8375    0.0000 N   0  0  0  0  0  0  0  0  0  0  0  0
    7.1447   -7.4250    0.0000 C   0  0  0  0  0  0  0  0  0  0  0  0
    7.8592   -7.8375    0.0000 C   0  0  0  0  0  0  0  0  0  0  0  0
    8.5737   -7.4250    0.0000 C   0  0  0  0  0  0  0  0  0  0  0  0
    8.5737   -6.6000    0.0000 Cl  0  0  0  0  0  0  0  0  0  0  0  0
    9.2881   -7.8375    0.0000 C   0  0  0  0  0  0  0  0  0  0  0  0
    9.2881   -8.6625    0.0000 C   0  0  0  0  0  0  0  0  0  0  0  0
   10.0026   -9.0750    0.0000 Cl  0  0  0  0  0  0  0  0  0  0  0  0
    8.5737   -9.0750    0.0000 C   0  0  0  0  0  0  0  0  0  0  0  0
    7.8592   -8.6625    0.0000 C   0  0  0  0  0  0  0  0  0  0  0  0
    5.0013   -7.8375    0.0000 C   0  0  0  0  0  0  0  0  0  0  0  0
    4.2868   -7.4250    0.0000 C   0  0  0  0  0  0  0  0  0  0  0  0
    0.0000   -6.6000    0.0000 C   0  0  0  0  0  0  0  0  0  0  0  0
   -0.7145   -6.1875    0.0000 C   0  0  0  0  0  0  0  0  0  0  0  0
  1  2  1  0  0  0  0
  2  3  1  0  0  0  0
  3  4  1  0  0  0  0
  4  5  1  0  0  0  0
  5  6  1  0  0  0  0
  6  7  1  0  0  0  0
  7  8  1  0  0  0  0
  8  9  1  0  0  0  0
  9 10  2  0  0  0  0
  9 11  1  0  0  0  0
 11 12  2  0  0  0  0
 12 13  1  0  0  0  0
 13 14  2  0  0  0  0
 14 15  1  0  0  0  0
 15 16  1  0  0  0  0
 16 17  1  0  0  0  0
 17 18  2  0  0  0  0
 18 19  1  0  0  0  0
 18 20  1  0  0  0  0
 20 21  2  0  0  0  0
 21 22  1  0  0  0  0
 21 23  1  0  0  0  0
 23 24  2  0  0  0  0
 17 24  1  0  0  0  0
 14 25  1  0  0  0  0
 25 26  2  0  0  0  0
 11 26  1  0  0  0  0
  5 27  1  0  0  0  0
 27 28  1  0  0  0  0
  2 28  1  0  0  0  0
M  END
> <ID>
CPD_1277

$$$$
CPD_1282
  Mrv1822 09091914012D          

 22 23  0  0  0  0            999 V2000
    2.1434   -6.1875    0.0000 C   0  0  0  0  0  0  0  0  0  0  0  0
    2.1434   -5.3625    0.0000 O   0  0  0  0  0  0  0  0  0  0  0  0
    1.4289   -4.9500    0.0000 C   0  0  0  0  0  0  0  0  0  0  0  0
    0.7145   -5.3625    0.0000 C   0  0  0  0  0  0  0  0  0  0  0  0
    0.0000   -4.9500    0.0000 C   0  0  0  0  0  0  0  0  0  0  0  0
   -0.7145   -5.3625    0.0000 Br  0  0  0  0  0  0  0  0  0  0  0  0
    0.0000   -4.1250    0.0000 C   0  0  0  0  0  0  0  0  0  0  0  0
    0.7145   -3.7125    0.0000 C   0  0  0  0  0  0  0  0  0  0  0  0
    1.4289   -4.1250    0.0000 C   0  0  0  0  0  0  0  0  0  0  0  0
    2.1434   -3.7125    0.0000 C   0  0  0  0  0  0  0  0  0  0  0  0
    2.8579   -4.1250    0.0000 C   0  0  0  0  0  0  0  0  0  0  0  0
    2.8579   -4.9500    0.0000 O   0  0  0  0  0  0  0  0  0  0  0  0
    3.5724   -3.7125    0.0000 N   0  0  0  0  0  0  0  0  0  0  0  0
    4.2868   -4.1250    0.0000 C   0  0  0  0  0  0  0  0  0  0  0  0
    5.0013   -3.7125    0.0000 C   0  0  0  0  0  0  0  0  0  0  0  0
    5.7158   -4.1250    0.0000 N   0  0  0  0  0  0  0  0  0  0  0  0
    6.4302   -3.7125    0.0000 C   0  0  0  0  0  0  0  0  0  0  0  0
    7.1447   -4.1250    0.0000 C   0  0  0  0  0  0  0  0  0  0  0  0
    7.1447   -4.9500    0.0000 N   0  0  0  0  0  0  0  0  0  0  0  0
    7.8592   -5.3625    0.0000 C   0  0  0  0  0  0  0  0  0  0  0  0
    6.4302   -5.3625    0.0000 C   0  0  0  0  0  0  0  0  0  0  0  0
    5.7158   -4.9500    0.0000 C   0  0  0  0  0  0  0  0  0  0  0  0
  1  2  1  0  0  0  0
  2  3  1  0  0  0  0
  3  4  2  0  0  0  0
  4  5  1  0  0  0  0
  5  6  1  0  0  0  0
  5  7  2  0  0  0  0
  7  8  1  0  0  0  0
  8  9  2  0  0  0  0
  3  9  1  0  0  0  0
  9 10  1  0  0  0  0
 10 11  1  0  0  0  0
 11 12  2  0  0  0  0
 11 13  1  0  0  0  0
 13 14  1  0  0  0  0
 14 15  1  0  0  0  0
 15 16  1  0  0  0  0
 16 17  1  0  0  0  0
 17 18  1  0  0  0  0
 18 19  1  0  0  0  0
 19 20  1  0  0  0  0
 19 21  1  0  0  0  0
 21 22  1  0  0  0  0
 16 22  1  0  0  0  0
M  END
> <ID>
CPD_1282

$$$$
CPD_1287
  Mrv1822 09091914012D          

 25 27  0  0  1  0            999 V2000
   -0.7145   -3.7125    0.0000 C   0  0  0  0  0  0  0  0  0  0  0  0
   -0.7145   -2.8875    0.0000 C   0  0  0  0  0  0  0  0  0  0  0  0
   -1.4289   -2.4750    0.0000 C   0  0  0  0  0  0  0  0  0  0  0  0
   -1.4289   -1.6500    0.0000 C   0  0  0  0  0  0  0  0  0  0  0  0
   -0.7145   -1.2375    0.0000 C   0  0  0  0  0  0  0  0  0  0  0  0
    0.0000   -1.6500    0.0000 C   0  0  0  0  0  0  0  0  0  0  0  0
    0.0000   -2.4750    0.0000 C   0  0  0  0  0  0  0  0  0  0  0  0
    0.7145   -2.8875    0.0000 C   0  0  0  0  0  0  0  0  0  0  0  0
    1.4289   -2.4750    0.0000 C   0  0  2  0  0  0  0  0  0  0  0  0
    1.4289   -1.6500    0.0000 N   0  0  0  0  0  0  0  0  0  0  0  0
    2.1434   -2.8875    0.0000 C   0  0  0  0  0  0  0  0  0  0  0  0
    2.1434   -3.7125    0.0000 O   0  0  0  0  0  0  0  0  0  0  0  0
    2.8579   -2.4750    0.0000 N   0  0  0  0  0  0  0  0  0  0  0  0
    3.5724   -2.8875    0.0000 C   0  0  0  0  0  0  0  0  0  0  0  0
    4.2868   -2.4750    0.0000 C   0  0  0  0  0  0  0  0  0  0  0  0
    4.2868   -1.6500    0.0000 C   0  0  0  0  0  0  0  0  0  0  0  0
    4.2868   -0.8250    0.0000 N   0  0  0  0  0  0  0  0  0  0  0  0
    5.0013   -2.8875    0.0000 C   0  0  0  0  0  0  0  0  0  0  0  0
    5.7158   -2.4750    0.0000 C   0  0  0  0  0  0  0  0  0  0  0  0
    5.0013   -3.7125    0.0000 N   0  0  0  0  0  0  0  0  0  0  0  0
    4.2868   -4.1250    0.0000 C   0  0  0  0  0  0  0  0  0  0  0  0
    4.1153   -4.9320    0.0000 N   0  0  0  0  0  0  0  0  0  0  0  0
    3.2948   -5.0182    0.0000 C   0  0  0  0  0  0  0  0  0  0  0  0
    2.9593   -4.2645    0.0000 N   0  0  0  0  0  0  0  0  0  0  0  0
    3.5724   -3.7125    0.0000 N   0  0  0  0  0  0  0  0  0  0  0  0
  1  2  1  0  0  0  0
  2  3  2  0  0  0  0
  3  4  1  0  0  0  0
  4  5  2  0  0  0  0
  5  6  1  0  0  0  0
  6  7  2  0  0  0  0
  2  7  1  0  0  0  0
  7  8  1  0  0  0  0
  9  8  1  0  0  0  0
  9 10  1  6  0  0  0
  9 11  1  0  0  0  0
 11 12  2  0  0  0  0
 11 13  1  0  0  0  0
 13 14  1  0  0  0  0
 14 15  2  0  0  0  0
 15 16  1  0  0  0  0
 16 17  3  0  0  0  0
 15 18  1  0  0  0  0
 18 19  1  0  0  0  0
 18 20  2  0  0  0  0
 20 21  1  0  0  0  0
 21 22  2  0  0  0  0
 22 23  1  0  0  0  0
 23 24  2  0  0  0  0
 24 25  1  0  0  0  0
 14 25  1  0  0  0  0
 21 25  1  0  0  0  0
M  END
> <ID>
CPD_1287

$$$$
CPD_1292
  Mrv1822 09091914012D          

 27 30  0  0  0  0            999 V2000
    4.2583   -3.6902    0.0000 O   0  0  0  0  0  0  0  0  0  0  0  0
    4.2840   -2.8656    0.0000 C   0  0  0  0  0  0  0  0  0  0  0  0
    3.5828   -2.4310    0.0000 O   0  0  0  0  0  0  0  0  0  0  0  0
    5.0110   -2.4756    0.0000 C   0  0  0  0  0  0  0  0  0  0  0  0
    5.0368   -1.6510    0.0000 C   0  0  0  0  0  0  0  0  0  0  0  0
    4.3355   -1.2164    0.0000 N   0  0  0  0  0  0  0  0  0  0  0  0
    4.3613   -0.3918    0.0000 C   0  0  0  0  0  0  0  0  0  0  0  0
    5.0883   -0.0018    0.0000 O   0  0  0  0  0  0  0  0  0  0  0  0
    3.6601    0.0428    0.0000 C   0  0  0  0  0  0  0  0  0  0  0  0
    2.8963   -0.2691    0.0000 C   0  0  0  0  0  0  0  0  0  0  0  0
    2.3637    0.3610    0.0000 C   0  0  0  0  0  0  0  0  0  0  0  0
    2.7983    1.0622    0.0000 C   0  0  0  0  0  0  0  0  0  0  0  0
    3.5995    0.8656    0.0000 N   0  0  0  0  0  0  0  0  0  0  0  0
    2.4083    1.7892    0.0000 C   0  0  0  0  0  0  0  0  0  0  0  0
    1.5837    1.8150    0.0000 C   0  0  0  0  0  0  0  0  0  0  0  0
    1.1491    1.1137    0.0000 C   0  0  0  0  0  0  0  0  0  0  0  0
    1.5391    0.3867    0.0000 C   0  0  0  0  0  0  0  0  0  0  0  0
    1.1045   -0.3145    0.0000 C   0  0  0  0  0  0  0  0  0  0  0  0
    0.2799   -0.2887    0.0000 C   0  0  0  0  0  0  0  0  0  0  0  0
   -0.1101    0.4383    0.0000 C   0  0  0  0  0  0  0  0  0  0  0  0
    0.3245    1.1395    0.0000 C   0  0  0  0  0  0  0  0  0  0  0  0
    5.7638   -1.2610    0.0000 C   0  0  0  0  0  0  0  0  0  0  0  0
    6.4650   -1.6956    0.0000 C   0  0  0  0  0  0  0  0  0  0  0  0
    6.4393   -2.5202    0.0000 C   0  0  0  0  0  0  0  0  0  0  0  0
    5.7123   -2.9102    0.0000 C   0  0  0  0  0  0  0  0  0  0  0  0
    7.1405   -2.9548    0.0000 C   0  0  0  0  0  0  0  0  0  0  0  0
    7.8418   -3.3895    0.0000 N   0  0  0  0  0  0  0  0  0  0  0  0
  1  2  1  0  0  0  0
  2  3  2  0  0  0  0
  2  4  1  0  0  0  0
  4  5  2  0  0  0  0
  5  6  1  0  0  0  0
  6  7  1  0  0  0  0
  7  8  2  0  0  0  0
  7  9  1  0  0  0  0
  9 10  2  0  0  0  0
 10 11  1  0  0  0  0
 11 12  2  0  0  0  0
 12 13  1  0  0  0  0
  9 13  1  0  0  0  0
 12 14  1  0  0  0  0
 14 15  2  0  0  0  0
 15 16  1  0  0  0  0
 16 17  2  0  0  0  0
 11 17  1  0  0  0  0
 17 18  1  0  0  0  0
 18 19  2  0  0  0  0
 19 20  1  0  0  0  0
 20 21  2  0  0  0  0
 16 21  1  0  0  0  0
  5 22  1  0  0  0  0
 22 23  2  0  0  0  0
 23 24  1  0  0  0  0
 24 25  2  0  0  0  0
  4 25  1  0  0  0  0
 24 26  1  0  0  0  0
 26 27  3  0  0  0  0
M  END
> <ID>
CPD_1292

$$$$
CPD_1297
  Mrv1822 09091914012D          

 22 24  0  0  0  0            999 V2000
   -4.2868   -3.3000    0.0000 C   0  0  0  0  0  0  0  0  0  0  0  0
   -3.5724   -2.8875    0.0000 C   0  0  0  0  0  0  0  0  0  0  0  0
   -3.5724   -2.0625    0.0000 N   0  0  0  0  0  0  0  0  0  0  0  0
   -2.8579   -1.6500    0.0000 C   0  0  0  0  0  0  0  0  0  0  0  0
   -2.1434   -2.0625    0.0000 C   0  0  0  0  0  0  0  0  0  0  0  0
   -2.1434   -2.8875    0.0000 C   0  0  0  0  0  0  0  0  0  0  0  0
   -1.4289   -3.3000    0.0000 C   0  0  0  0  0  0  0  0  0  0  0  0
   -0.7145   -2.8875    0.0000 C   0  0  0  0  0  0  0  0  0  0  0  0
    0.0000   -3.3000    0.0000 N   0  0  0  0  0  0  0  0  0  0  0  0
    0.7145   -2.8875    0.0000 C   0  0  0  0  0  0  0  0  0  0  0  0
    0.7145   -2.0625    0.0000 O   0  0  0  0  0  0  0  0  0  0  0  0
    1.4289   -3.3000    0.0000 C   0  0  0  0  0  0  0  0  0  0  0  0
    2.1434   -2.8875    0.0000 C   0  0  0  0  0  0  0  0  0  0  0  0
    2.1434   -2.0625    0.0000 C   0  0  0  0  0  0  0  0  0  0  0  0
    2.8579   -1.6500    0.0000 C   0  0  0  0  0  0  0  0  0  0  0  0
    3.5724   -2.0625    0.0000 C   0  0  0  0  0  0  0  0  0  0  0  0
    3.5724   -2.8875    0.0000 C   0  0  0  0  0  0  0  0  0  0  0  0
    2.8579   -3.3000    0.0000 C   0  0  0  0  0  0  0  0  0  0  0  0
    2.8579   -4.1250    0.0000 C   0  0  0  0  0  0  0  0  0  0  0  0
    2.1434   -4.5375    0.0000 C   0  0  0  0  0  0  0  0  0  0  0  0
    1.4289   -4.1250    0.0000 C   0  0  0  0  0  0  0  0  0  0  0  0
   -2.8579   -3.3000    0.0000 N   0  0  0  0  0  0  0  0  0  0  0  0
  1  2  1  0  0  0  0
  2  3  2  0  0  0  0
  3  4  1  0  0  0  0
  4  5  2  0  0  0  0
  5  6  1  0  0  0  0
  6  7  1  0  0  0  0
  7  8  1  0  0  0  0
  8  9  1  0  0  0  0
  9 10  1  0  0  0  0
 10 11  2  0  0  0  0
 10 12  1  0  0  0  0
 12 13  2  0  0  0  0
 13 14  1  0  0  0  0
 14 15  2  0  0  0  0
 15 16  1  0  0  0  0
 16 17  2  0  0  0  0
 17 18  1  0  0  0  0
 13 18  1  0  0  0  0
 18 19  2  0  0  0  0
 19 20  1  0  0  0  0
 20 21  2  0  0  0  0
 12 21  1  0  0  0  0
  6 22  2  0  0  0  0
  2 22  1  0  0  0  0
M  END
> <ID>
CPD_1297

$$$$
CPD_1302
  Mrv1822 09091914012D          

 33 35  0  0  0  0            999 V2000
   -0.7145   -7.8375    0.0000 C   0  0  0  0  0  0  0  0  0  0  0  0
   -1.4289   -8.2500    0.0000 N   0  0  0  0  0  0  0  0  0  0  0  0
   -1.4289   -9.0750    0.0000 C   0  0  0  0  0  0  0  0  0  0  0  0
   -2.1434   -7.8375    0.0000 S   0  0  0  0  0  0  0  0  0  0  0  0
   -1.7309   -7.1230    0.0000 O   0  0  0  0  0  0  0  0  0  0  0  0
   -2.5559   -8.5520    0.0000 O   0  0  0  0  0  0  0  0  0  0  0  0
   -2.8579   -7.4250    0.0000 N   0  0  0  0  0  0  0  0  0  0  0  0
   -2.8579   -6.6000    0.0000 C   0  0  0  0  0  0  0  0  0  0  0  0
   -2.1434   -6.1875    0.0000 C   0  0  0  0  0  0  0  0  0  0  0  0
   -2.1434   -5.3625    0.0000 C   0  0  0  0  0  0  0  0  0  0  0  0
   -1.4289   -4.9500    0.0000 C   0  0  0  0  0  0  0  0  0  0  0  0
   -0.7145   -5.3625    0.0000 C   0  0  0  0  0  0  0  0  0  0  0  0
   -0.7145   -6.1875    0.0000 C   0  0  0  0  0  0  0  0  0  0  0  0
   -1.4289   -6.6000    0.0000 C   0  0  0  0  0  0  0  0  0  0  0  0
    0.0000   -4.9500    0.0000 C   0  0  0  0  0  0  0  0  0  0  0  0
    0.0000   -4.1250    0.0000 O   0  0  0  0  0  0  0  0  0  0  0  0
    0.7145   -5.3625    0.0000 N   0  0  0  0  0  0  0  0  0  0  0  0
    1.4289   -4.9500    0.0000 C   0  0  0  0  0  0  0  0  0  0  0  0
    2.1434   -5.3625    0.0000 C   0  0  0  0  0  0  0  0  0  0  0  0
    2.8579   -4.9500    0.0000 C   0  0  0  0  0  0  0  0  0  0  0  0
    2.8579   -4.1250    0.0000 N   0  0  0  0  0  0  0  0  0  0  0  0
    3.5724   -3.7125    0.0000 C   0  0  0  0  0  0  0  0  0  0  0  0
    3.5724   -2.8875    0.0000 C   0  0  0  0  0  0  0  0  0  0  0  0
    4.2868   -4.1250    0.0000 N   0  0  0  0  0  0  0  0  0  0  0  0
    4.2868   -4.9500    0.0000 C   0  0  0  0  0  0  0  0  0  0  0  0
    3.5724   -5.3625    0.0000 C   0  0  0  0  0  0  0  0  0  0  0  0
   -3.5724   -7.8375    0.0000 C   0  0  0  0  0  0  0  0  0  0  0  0
   -3.5724   -8.6625    0.0000 C   0  0  0  0  0  0  0  0  0  0  0  0
   -4.2868   -9.0750    0.0000 C   0  0  0  0  0  0  0  0  0  0  0  0
   -5.0013   -8.6625    0.0000 C   0  0  0  0  0  0  0  0  0  0  0  0
   -5.0013   -7.8375    0.0000 C   0  0  0  0  0  0  0  0  0  0  0  0
   -4.2868   -7.4250    0.0000 C   0  0  0  0  0  0  0  0  0  0  0  0
   -4.2868   -6.6000    0.0000 F   0  0  0  0  0  0  0  0  0  0  0  0
  1  2  1  0  0  0  0
  2  3  1  0  0  0  0
  2  4  1  0  0  0  0
  4  5  2  0  0  0  0
  4  6  2  0  0  0  0
  4  7  1  0  0  0  0
  7  8  1  0  0  0  0
  8  9  1  0  0  0  0
  9 10  2  0  0  0  0
 10 11  1  0  0  0  0
 11 12  2  0  0  0  0
 12 13  1  0  0  0  0
 13 14  2  0  0  0  0
  9 14  1  0  0  0  0
 12 15  1  0  0  0  0
 15 16  2  0  0  0  0
 15 17  1  0  0  0  0
 17 18  1  0  0  0  0
 18 19  1  0  0  0  0
 19 20  1  0  0  0  0
 20 21  2  0  0  0  0
 21 22  1  0  0  0  0
 22 23  1  0  0  0  0
 22 24  2  0  0  0  0
 24 25  1  0  0  0  0
 25 26  2  0  0  0  0
 20 26  1  0  0  0  0
  7 27  1  0  0  0  0
 27 28  2  0  0  0  0
 28 29  1  0  0  0  0
 29 30  2  0  0  0  0
 30 31  1  0  0  0  0
 31 32  2  0  0  0  0
 27 32  1  0  0  0  0
 32 33  1  0  0  0  0
M  END
> <ID>
CPD_1302

$$$$
CPD_1307
  Mrv1822 09091914012D          

 26 28  0  0  0  0            999 V2000
   -4.2624   -5.2906    0.0000 C   0  0  0  0  0  0  0  0  0  0  0  0
   -3.5479   -4.8781    0.0000 C   0  0  0  0  0  0  0  0  0  0  0  0
   -3.5479   -4.0531    0.0000 N   0  0  0  0  0  0  0  0  0  0  0  0
   -2.8334   -3.6406    0.0000 C   0  0  0  0  0  0  0  0  0  0  0  0
   -2.1190   -4.0531    0.0000 C   0  0  0  0  0  0  0  0  0  0  0  0
   -2.1190   -4.8781    0.0000 C   0  0  0  0  0  0  0  0  0  0  0  0
   -1.4045   -5.2906    0.0000 C   0  0  0  0  0  0  0  0  0  0  0  0
   -0.6900   -4.8781    0.0000 C   0  0  0  0  0  0  0  0  0  0  0  0
    0.0244   -5.2906    0.0000 N   0  0  0  0  0  0  0  0  0  0  0  0
    0.7389   -4.8781    0.0000 C   0  0  0  0  0  0  0  0  0  0  0  0
    0.7389   -4.0531    0.0000 O   0  0  0  0  0  0  0  0  0  0  0  0
    1.4534   -5.2906    0.0000 C   0  0  0  0  0  0  0  0  0  0  0  0
    2.1678   -4.8781    0.0000 C   0  0  0  0  0  0  0  0  0  0  0  0
    2.8823   -5.2906    0.0000 N   0  0  0  0  0  0  0  0  0  0  0  0
    2.9686   -6.1110    0.0000 C   0  0  0  0  0  0  0  0  0  0  0  0
    2.3555   -6.6631    0.0000 O   0  0  0  0  0  0  0  0  0  0  0  0
    3.7755   -6.2826    0.0000 C   0  0  0  0  0  0  0  0  0  0  0  0
    4.1880   -5.5681    0.0000 C   0  0  0  0  0  0  0  0  0  0  0  0
    5.0130   -5.5681    0.0000 C   0  0  0  0  0  0  0  0  0  0  0  0
    5.4255   -6.2826    0.0000 C   0  0  0  0  0  0  0  0  0  0  0  0
    5.0130   -6.9970    0.0000 C   0  0  0  0  0  0  0  0  0  0  0  0
    4.1880   -6.9970    0.0000 C   0  0  0  0  0  0  0  0  0  0  0  0
    3.6360   -4.9550    0.0000 S   0  0  0  0  0  0  0  0  0  0  0  0
    4.1816   -4.3362    0.0000 O   0  0  0  0  0  0  0  0  0  0  0  0
    3.3893   -4.1678    0.0000 O   0  0  0  0  0  0  0  0  0  0  0  0
   -2.8334   -5.2906    0.0000 N   0  0  0  0  0  0  0  0  0  0  0  0
  1  2  1  0  0  0  0
  2  3  2  0  0  0  0
  3  4  1  0  0  0  0
  4  5  2  0  0  0  0
  5  6  1  0  0  0  0
  6  7  1  0  0  0  0
  7  8  1  0  0  0  0
  8  9  1  0  0  0  0
  9 10  1  0  0  0  0
 10 11  2  0  0  0  0
 10 12  1  0  0  0  0
 12 13  1  0  0  0  0
 13 14  1  0  0  0  0
 14 15  1  0  0  0  0
 15 16  2  0  0  0  0
 15 17  1  0  0  0  0
 17 18  2  0  0  0  0
 18 19  1  0  0  0  0
 19 20  2  0  0  0  0
 20 21  1  0  0  0  0
 21 22  2  0  0  0  0
 17 22  1  0  0  0  0
 18 23  1  0  0  0  0
 14 23  1  0  0  0  0
 23 24  2  0  0  0  0
 23 25  2  0  0  0  0
  6 26  2  0  0  0  0
  2 26  1  0  0  0  0
M  END
> <ID>
CPD_1307

$$$$
CPD_1312
  Mrv1822 09091914012D          

 21 22  0  0  1  0            999 V2000
    2.0329   -2.4750    0.0000 C   0  0  0  0  0  0  0  0  0  0  0  0
    2.8579   -2.4750    0.0000 C   0  0  0  0  0  0  0  0  0  0  0  0
    3.2704   -1.7605    0.0000 N   0  0  0  0  0  0  0  0  0  0  0  0
    2.8579   -1.0461    0.0000 C   0  0  2  0  0  0  0  0  0  0  0  0
    2.0329   -1.0461    0.0000 C   0  0  0  0  0  0  0  0  0  0  0  0
    1.6204   -0.3316    0.0000 C   0  0  0  0  0  0  0  0  0  0  0  0
    2.0329    0.3829    0.0000 C   0  0  0  0  0  0  0  0  0  0  0  0
    2.8579    0.3829    0.0000 C   0  0  0  0  0  0  0  0  0  0  0  0
    3.2704   -0.3316    0.0000 C   0  0  1  0  0  0  0  0  0  0  0  0
    4.0954   -0.3316    0.0000 O   0  0  0  0  0  0  0  0  0  0  0  0
    4.0954   -1.7605    0.0000 C   0  0  0  0  0  0  0  0  0  0  0  0
    4.5079   -1.0461    0.0000 O   0  0  0  0  0  0  0  0  0  0  0  0
    4.5079   -2.4750    0.0000 C   0  0  2  0  0  0  0  0  0  0  0  0
    4.0954   -3.1895    0.0000 N   0  0  0  0  0  0  0  0  0  0  0  0
    5.3329   -2.4750    0.0000 C   0  0  0  0  0  0  0  0  0  0  0  0
    5.7454   -3.1895    0.0000 C   0  0  0  0  0  0  0  0  0  0  0  0
    6.5704   -3.1895    0.0000 C   0  0  0  0  0  0  0  0  0  0  0  0
    6.9829   -3.9039    0.0000 C   0  0  0  0  0  0  0  0  0  0  0  0
    6.5704   -4.6184    0.0000 C   0  0  0  0  0  0  0  0  0  0  0  0
    5.7454   -4.6184    0.0000 C   0  0  0  0  0  0  0  0  0  0  0  0
    5.3329   -3.9039    0.0000 C   0  0  0  0  0  0  0  0  0  0  0  0
  1  2  1  0  0  0  0
  2  3  1  0  0  0  0
  4  3  1  6  0  0  0
  4  5  1  0  0  0  0
  5  6  1  0  0  0  0
  6  7  1  0  0  0  0
  7  8  1  0  0  0  0
  9  8  1  0  0  0  0
  4  9  1  0  0  0  0
  9 10  1  1  0  0  0
  3 11  1  0  0  0  0
 11 12  2  0  0  0  0
 13 11  1  0  0  0  0
 13 14  1  1  0  0  0
 13 15  1  0  0  0  0
 15 16  1  0  0  0  0
 16 17  2  0  0  0  0
 17 18  1  0  0  0  0
 18 19  2  0  0  0  0
 19 20  1  0  0  0  0
 20 21  2  0  0  0  0
 16 21  1  0  0  0  0
M  END
> <ID>
CPD_1312

$$$$
CPD_1317
  Mrv1822 09091914012D          

 18 18  0  0  1  0            999 V2000
    1.9690   -1.0264    0.0000 C   0  0  0  0  0  0  0  0  0  0  0  0
    1.4289   -1.6500    0.0000 C   0  0  0  0  0  0  0  0  0  0  0  0
    1.6990   -2.4296    0.0000 N   0  0  0  0  0  0  0  0  0  0  0  0
    1.1589   -3.0532    0.0000 C   0  0  2  0  0  0  0  0  0  0  0  0
    1.4289   -3.8327    0.0000 C   0  0  0  0  0  0  0  0  0  0  0  0
    0.8889   -4.4564    0.0000 C   0  0  0  0  0  0  0  0  0  0  0  0
    0.0787   -4.3005    0.0000 C   0  0  0  0  0  0  0  0  0  0  0  0
   -0.1913   -3.5209    0.0000 C   0  0  0  0  0  0  0  0  0  0  0  0
    0.3488   -2.8973    0.0000 C   0  0  1  0  0  0  0  0  0  0  0  0
    0.0787   -2.1177    0.0000 O   0  0  0  0  0  0  0  0  0  0  0  0
    2.5091   -2.5855    0.0000 C   0  0  0  0  0  0  0  0  0  0  0  0
    2.7792   -3.3650    0.0000 O   0  0  0  0  0  0  0  0  0  0  0  0
    3.0492   -1.9618    0.0000 C   0  0  0  0  0  0  0  0  0  0  0  0
    3.8593   -2.1177    0.0000 C   0  0  0  0  0  0  0  0  0  0  0  0
    4.3994   -1.4941    0.0000 C   0  0  0  0  0  0  0  0  0  0  0  0
    4.1294   -0.7145    0.0000 O   0  0  0  0  0  0  0  0  0  0  0  0
    5.2096   -1.6500    0.0000 O   0  0  0  0  0  0  0  0  0  0  0  0
    5.7497   -1.0264    0.0000 C   0  0  0  0  0  0  0  0  0  0  0  0
  1  2  1  0  0  0  0
  2  3  1  0  0  0  0
  4  3  1  6  0  0  0
  4  5  1  0  0  0  0
  5  6  1  0  0  0  0
  6  7  1  0  0  0  0
  7  8  1  0  0  0  0
  9  8  1  0  0  0  0
  4  9  1  0  0  0  0
  9 10  1  1  0  0  0
  3 11  1  0  0  0  0
 11 12  2  0  0  0  0
 11 13  1  0  0  0  0
 13 14  1  0  0  0  0
 14 15  1  0  0  0  0
 15 16  2  0  0  0  0
 15 17  1  0  0  0  0
 17 18  1  0  0  0  0
M  END
> <ID>
CPD_1317

$$$$
CPD_1322
  Mrv1822 09091914012D          

 32 35  0  0  0  0            999 V2000
    2.4335    3.0398    0.0000 C   0  0  0  0  0  0  0  0  0  0  0  0
    1.6265    3.2113    0.0000 C   0  0  0  0  0  0  0  0  0  0  0  0
    1.0745    2.5982    0.0000 O   0  0  0  0  0  0  0  0  0  0  0  0
    0.2675    2.7697    0.0000 C   0  0  0  0  0  0  0  0  0  0  0  0
   -0.2845    2.1566    0.0000 C   0  0  0  0  0  0  0  0  0  0  0  0
   -0.0296    1.3720    0.0000 N   0  0  0  0  0  0  0  0  0  0  0  0
   -0.5816    0.7589    0.0000 C   0  0  0  0  0  0  0  0  0  0  0  0
   -1.3886    0.9304    0.0000 O   0  0  0  0  0  0  0  0  0  0  0  0
   -0.3266   -0.0257    0.0000 C   0  0  0  0  0  0  0  0  0  0  0  0
   -0.8116   -0.6931    0.0000 C   0  0  0  0  0  0  0  0  0  0  0  0
   -1.6366   -0.6931    0.0000 N   0  0  0  0  0  0  0  0  0  0  0  0
   -2.0491   -1.4076    0.0000 C   0  0  0  0  0  0  0  0  0  0  0  0
   -2.8741   -1.4076    0.0000 O   0  0  0  0  0  0  0  0  0  0  0  0
   -1.6366   -2.1221    0.0000 C   0  0  0  0  0  0  0  0  0  0  0  0
   -0.8161   -2.2083    0.0000 C   0  0  0  0  0  0  0  0  0  0  0  0
   -0.6446   -3.0153    0.0000 O   0  0  0  0  0  0  0  0  0  0  0  0
   -1.3590   -3.4278    0.0000 C   0  0  0  0  0  0  0  0  0  0  0  0
   -1.4453   -4.2483    0.0000 Br  0  0  0  0  0  0  0  0  0  0  0  0
   -1.9721   -2.8758    0.0000 N   0  0  0  0  0  0  0  0  0  0  0  0
   -0.3266   -1.3606    0.0000 S   0  0  0  0  0  0  0  0  0  0  0  0
    0.4580   -1.1056    0.0000 C   0  0  0  0  0  0  0  0  0  0  0  0
    0.4580   -0.2806    0.0000 C   0  0  0  0  0  0  0  0  0  0  0  0
    1.0413    0.3027    0.0000 C   0  0  0  0  0  0  0  0  0  0  0  0
    1.8663    0.3027    0.0000 C   0  0  0  0  0  0  0  0  0  0  0  0
    2.4497   -0.2806    0.0000 C   0  0  0  0  0  0  0  0  0  0  0  0
    2.4497   -1.1056    0.0000 C   0  0  0  0  0  0  0  0  0  0  0  0
    1.8663   -1.6890    0.0000 C   0  0  0  0  0  0  0  0  0  0  0  0
    1.0413   -1.6890    0.0000 C   0  0  0  0  0  0  0  0  0  0  0  0
   -1.0915    2.3282    0.0000 C   0  0  0  0  0  0  0  0  0  0  0  0
   -1.3464    3.1128    0.0000 C   0  0  0  0  0  0  0  0  0  0  0  0
   -0.7944    3.7259    0.0000 C   0  0  0  0  0  0  0  0  0  0  0  0
    0.0126    3.5543    0.0000 C   0  0  0  0  0  0  0  0  0  0  0  0
  1  2  1  0  0  0  0
  2  3  1  0  0  0  0
  3  4  1  0  0  0  0
  4  5  2  0  0  0  0
  5  6  1  0  0  0  0
  6  7  1  0  0  0  0
  7  8  2  0  0  0  0
  7  9  1  0  0  0  0
  9 10  2  0  0  0  0
 10 11  1  0  0  0  0
 11 12  1  0  0  0  0
 12 13  2  0  0  0  0
 12 14  1  0  0  0  0
 14 15  2  0  0  0  0
 15 16  1  0  0  0  0
 16 17  1  0  0  0  0
 17 18  1  0  0  0  0
 17 19  2  0  0  0  0
 14 19  1  0  0  0  0
 10 20  1  0  0  0  0
 20 21  1  0  0  0  0
 21 22  2  0  0  0  0
  9 22  1  0  0  0  0
 22 23  1  0  0  0  0
 23 24  1  0  0  0  0
 24 25  1  0  0  0  0
 25 26  1  0  0  0  0
 26 27  1  0  0  0  0
 27 28  1  0  0  0  0
 21 28  1  0  0  0  0
  5 29  1  0  0  0  0
 29 30  2  0  0  0  0
 30 31  1  0  0  0  0
 31 32  2  0  0  0  0
  4 32  1  0  0  0  0
M  END
> <ID>
CPD_1322

$$$$
CPD_1327
  Mrv1822 09091914012D          

 19 19  0  0  0  0            999 V2000
   -0.7145    5.3625    0.0000 C   0  0  0  0  0  0  0  0  0  0  0  0
   -0.7145    4.5375    0.0000 C   0  0  0  0  0  0  0  0  0  0  0  0
   -1.5395    4.5375    0.0000 C   0  0  0  0  0  0  0  0  0  0  0  0
    0.1105    4.5375    0.0000 C   0  0  0  0  0  0  0  0  0  0  0  0
   -0.7145    3.7125    0.0000 C   0  0  0  0  0  0  0  0  0  0  0  0
    0.0000    3.3000    0.0000 N   0  0  0  0  0  0  0  0  0  0  0  0
    0.0000    2.4750    0.0000 C   0  0  0  0  0  0  0  0  0  0  0  0
   -0.7145    2.0625    0.0000 O   0  0  0  0  0  0  0  0  0  0  0  0
    0.7145    2.0625    0.0000 C   0  0  0  0  0  0  0  0  0  0  0  0
    0.7145    1.2375    0.0000 C   0  0  0  0  0  0  0  0  0  0  0  0
    1.4289    0.8250    0.0000 C   0  0  0  0  0  0  0  0  0  0  0  0
    2.1434    1.2375    0.0000 C   0  0  0  0  0  0  0  0  0  0  0  0
    2.8579    0.8250    0.0000 C   0  0  0  0  0  0  0  0  0  0  0  0
    3.5724    1.2375    0.0000 O   0  0  0  0  0  0  0  0  0  0  0  0
    2.8579   -0.0000    0.0000 O   0  0  0  0  0  0  0  0  0  0  0  0
    1.4289   -0.0000    0.0000 C   0  0  0  0  0  0  0  0  0  0  0  0
    0.7145   -0.4125    0.0000 C   0  0  0  0  0  0  0  0  0  0  0  0
    0.0000    0.0000    0.0000 C   0  0  0  0  0  0  0  0  0  0  0  0
    0.0000    0.8250    0.0000 C   0  0  0  0  0  0  0  0  0  0  0  0
  1  2  1  0  0  0  0
  2  3  1  0  0  0  0
  2  4  1  0  0  0  0
  2  5  1  0  0  0  0
  5  6  1  0  0  0  0
  6  7  1  0  0  0  0
  7  8  2  0  0  0  0
  7  9  1  0  0  0  0
  9 10  1  0  0  0  0
 10 11  2  0  0  0  0
 11 12  1  0  0  0  0
 12 13  1  0  0  0  0
 13 14  1  0  0  0  0
 13 15  2  0  0  0  0
 11 16  1  0  0  0  0
 16 17  2  0  0  0  0
 17 18  1  0  0  0  0
 18 19  2  0  0  0  0
 10 19  1  0  0  0  0
M  END
> <ID>
CPD_1327

$$$$
CPD_1332
  Mrv1822 09091914012D          

 35 39  0  0  0  0            999 V2000
    1.4289   -5.7750    0.0000 Cl  0  0  0  0  0  0  0  0  0  0  0  0
    1.4289   -4.9500    0.0000 C   0  0  0  0  0  0  0  0  0  0  0  0
    0.7145   -4.5375    0.0000 C   0  0  0  0  0  0  0  0  0  0  0  0
    0.7145   -3.7125    0.0000 C   0  0  0  0  0  0  0  0  0  0  0  0
    1.4289   -3.3000    0.0000 C   0  0  0  0  0  0  0  0  0  0  0  0
    2.1434   -3.7125    0.0000 C   0  0  0  0  0  0  0  0  0  0  0  0
    2.1434   -4.5375    0.0000 C   0  0  0  0  0  0  0  0  0  0  0  0
    1.4289   -2.4750    0.0000 S   0  0  0  0  0  0  0  0  0  0  0  0
    2.2539   -2.4750    0.0000 O   0  0  0  0  0  0  0  0  0  0  0  0
    0.6039   -2.4750    0.0000 O   0  0  0  0  0  0  0  0  0  0  0  0
    1.4289   -1.6500    0.0000 N   0  0  0  0  0  0  0  0  0  0  0  0
    0.7145   -1.2375    0.0000 C   0  0  0  0  0  0  0  0  0  0  0  0
    0.7145   -0.4125    0.0000 C   0  0  0  0  0  0  0  0  0  0  0  0
    1.4289    0.0000    0.0000 O   0  0  0  0  0  0  0  0  0  0  0  0
    2.1434   -0.4125    0.0000 C   0  0  0  0  0  0  0  0  0  0  0  0
    2.8579    0.0000    0.0000 C   0  0  0  0  0  0  0  0  0  0  0  0
    3.5724   -0.4125    0.0000 C   0  0  0  0  0  0  0  0  0  0  0  0
    3.5724   -1.2375    0.0000 C   0  0  0  0  0  0  0  0  0  0  0  0
    2.8579   -1.6500    0.0000 C   0  0  0  0  0  0  0  0  0  0  0  0
    2.1434   -1.2375    0.0000 C   0  0  0  0  0  0  0  0  0  0  0  0
    0.0000    0.0000    0.0000 C   0  0  0  0  0  0  0  0  0  0  0  0
    0.0000    0.8250    0.0000 O   0  0  0  0  0  0  0  0  0  0  0  0
   -0.7145   -0.4125    0.0000 N   0  0  0  0  0  0  0  0  0  0  0  0
   -1.4289    0.0000    0.0000 C   0  0  0  0  0  0  0  0  0  0  0  0
   -2.1434   -0.4125    0.0000 C   0  0  0  0  0  0  0  0  0  0  0  0
   -2.8579    0.0000    0.0000 C   0  0  0  0  0  0  0  0  0  0  0  0
   -3.5724   -0.4125    0.0000 O   0  0  0  0  0  0  0  0  0  0  0  0
   -4.2868    0.0000    0.0000 C   0  0  0  0  0  0  0  0  0  0  0  0
   -5.0405   -0.3356    0.0000 N   0  0  0  0  0  0  0  0  0  0  0  0
   -5.5925    0.2775    0.0000 N   0  0  0  0  0  0  0  0  0  0  0  0
   -5.1800    0.9920    0.0000 C   0  0  0  0  0  0  0  0  0  0  0  0
   -4.3731    0.8205    0.0000 S   0  0  0  0  0  0  0  0  0  0  0  0
   -2.8579    0.8250    0.0000 C   0  0  0  0  0  0  0  0  0  0  0  0
   -2.1434    1.2375    0.0000 C   0  0  0  0  0  0  0  0  0  0  0  0
   -1.4289    0.8250    0.0000 C   0  0  0  0  0  0  0  0  0  0  0  0
  1  2  1  0  0  0  0
  2  3  2  0  0  0  0
  3  4  1  0  0  0  0
  4  5  2  0  0  0  0
  5  6  1  0  0  0  0
  6  7  2  0  0  0  0
  2  7  1  0  0  0  0
  5  8  1  0  0  0  0
  8  9  2  0  0  0  0
  8 10  2  0  0  0  0
  8 11  1  0  0  0  0
 11 12  1  0  0  0  0
 12 13  1  0  0  0  0
 13 14  1  0  0  0  0
 14 15  1  0  0  0  0
 15 16  2  0  0  0  0
 16 17  1  0  0  0  0
 17 18  2  0  0  0  0
 18 19  1  0  0  0  0
 19 20  2  0  0  0  0
 11 20  1  0  0  0  0
 15 20  1  0  0  0  0
 13 21  1  0  0  0  0
 21 22  2  0  0  0  0
 21 23  1  0  0  0  0
 23 24  1  0  0  0  0
 24 25  2  0  0  0  0
 25 26  1  0  0  0  0
 26 27  1  0  0  0  0
 27 28  1  0  0  0  0
 28 29  2  0  0  0  0
 29 30  1  0  0  0  0
 30 31  2  0  0  0  0
 31 32  1  0  0  0  0
 28 32  1  0  0  0  0
 26 33  2  0  0  0  0
 33 34  1  0  0  0  0
 34 35  2  0  0  0  0
 24 35  1  0  0  0  0
M  END
> <ID>
CPD_1332

$$$$
CPD_1337
  Mrv1822 09091914012D          

 30 33  0  0  0  0            999 V2000
   -1.8659   -1.4124    0.0000 C   0  0  0  0  0  0  0  0  0  0  0  0
   -1.4534   -0.6979    0.0000 C   0  0  0  0  0  0  0  0  0  0  0  0
   -0.6284   -0.6979    0.0000 N   0  0  0  0  0  0  0  0  0  0  0  0
   -0.1435   -1.3654    0.0000 C   0  0  0  0  0  0  0  0  0  0  0  0
    0.6411   -1.1104    0.0000 C   0  0  0  0  0  0  0  0  0  0  0  0
    0.6411   -0.2854    0.0000 C   0  0  0  0  0  0  0  0  0  0  0  0
   -0.1435   -0.0305    0.0000 N   0  0  0  0  0  0  0  0  0  0  0  0
    1.3556    0.1271    0.0000 N   0  0  0  0  0  0  0  0  0  0  0  0
    2.0701   -0.2854    0.0000 C   0  0  0  0  0  0  0  0  0  0  0  0
    2.7845    0.1271    0.0000 S   0  0  0  0  0  0  0  0  0  0  0  0
    3.4990   -0.2854    0.0000 C   0  0  0  0  0  0  0  0  0  0  0  0
    4.2135    0.1271    0.0000 C   0  0  0  0  0  0  0  0  0  0  0  0
    4.2135    0.9521    0.0000 O   0  0  0  0  0  0  0  0  0  0  0  0
    4.9279   -0.2854    0.0000 N   0  0  0  0  0  0  0  0  0  0  0  0
    5.6424    0.1271    0.0000 C   0  0  0  0  0  0  0  0  0  0  0  0
    6.3569   -0.2854    0.0000 C   0  0  0  0  0  0  0  0  0  0  0  0
    6.3569   -1.1104    0.0000 C   0  0  0  0  0  0  0  0  0  0  0  0
    5.6424   -1.5229    0.0000 C   0  0  0  0  0  0  0  0  0  0  0  0
    4.9279   -1.1104    0.0000 C   0  0  0  0  0  0  0  0  0  0  0  0
    7.0714   -1.5229    0.0000 C   0  0  0  0  0  0  0  0  0  0  0  0
    7.8250   -1.1874    0.0000 C   0  0  0  0  0  0  0  0  0  0  0  0
    8.3771   -1.8005    0.0000 C   0  0  0  0  0  0  0  0  0  0  0  0
    7.9646   -2.5150    0.0000 C   0  0  0  0  0  0  0  0  0  0  0  0
    7.1576   -2.3434    0.0000 N   0  0  0  0  0  0  0  0  0  0  0  0
    2.0701   -1.1104    0.0000 C   0  0  0  0  0  0  0  0  0  0  0  0
    1.3556   -1.5229    0.0000 C   0  0  0  0  0  0  0  0  0  0  0  0
    1.3556   -2.3479    0.0000 C   0  0  0  0  0  0  0  0  0  0  0  0
    1.3556   -3.1729    0.0000 F   0  0  0  0  0  0  0  0  0  0  0  0
    0.5306   -2.3479    0.0000 F   0  0  0  0  0  0  0  0  0  0  0  0
    2.1806   -2.3479    0.0000 F   0  0  0  0  0  0  0  0  0  0  0  0
  1  2  1  0  0  0  0
  2  3  1  0  0  0  0
  3  4  1  0  0  0  0
  4  5  2  0  0  0  0
  5  6  1  0  0  0  0
  6  7  2  0  0  0  0
  3  7  1  0  0  0  0
  6  8  1  0  0  0  0
  8  9  2  0  0  0  0
  9 10  1  0  0  0  0
 10 11  1  0  0  0  0
 11 12  1  0  0  0  0
 12 13  2  0  0  0  0
 12 14  1  0  0  0  0
 14 15  1  0  0  0  0
 15 16  1  0  0  0  0
 16 17  1  0  0  0  0
 17 18  1  0  0  0  0
 18 19  1  0  0  0  0
 14 19  1  0  0  0  0
 17 20  1  0  0  0  0
 20 21  1  0  0  0  0
 21 22  1  0  0  0  0
 22 23  1  0  0  0  0
 23 24  1  0  0  0  0
 20 24  1  0  0  0  0
  9 25  1  0  0  0  0
 25 26  2  0  0  0  0
  5 26  1  0  0  0  0
 26 27  1  0  0  0  0
 27 28  1  0  0  0  0
 27 29  1  0  0  0  0
 27 30  1  0  0  0  0
M  END
> <ID>
CPD_1337

$$$$
CPD_1342
  Mrv1822 09091914012D          

 23 25  0  0  0  0            999 V2000
   -0.7145    6.7661    0.0000 C   0  0  0  0  0  0  0  0  0  0  0  0
   -0.0000    7.1786    0.0000 C   0  0  0  0  0  0  0  0  0  0  0  0
   -0.0000    8.0036    0.0000 N   0  0  0  0  0  0  0  0  0  0  0  0
   -0.7145    8.4161    0.0000 C   0  0  0  0  0  0  0  0  0  0  0  0
   -0.7145    9.2411    0.0000 C   0  0  0  0  0  0  0  0  0  0  0  0
   -1.4289    9.6536    0.0000 C   0  0  0  0  0  0  0  0  0  0  0  0
   -0.0000    9.6536    0.0000 O   0  0  0  0  0  0  0  0  0  0  0  0
    0.7145    9.2411    0.0000 C   0  0  0  0  0  0  0  0  0  0  0  0
    1.4289    9.6536    0.0000 C   0  0  0  0  0  0  0  0  0  0  0  0
    0.7145    8.4161    0.0000 C   0  0  0  0  0  0  0  0  0  0  0  0
    0.7145    6.7661    0.0000 C   0  0  0  0  0  0  0  0  0  0  0  0
    1.4289    7.1786    0.0000 O   0  0  0  0  0  0  0  0  0  0  0  0
    0.7145    5.9411    0.0000 N   0  0  0  0  0  0  0  0  0  0  0  0
    1.4289    5.5286    0.0000 C   0  0  0  0  0  0  0  0  0  0  0  0
    1.4289    4.7036    0.0000 C   0  0  0  0  0  0  0  0  0  0  0  0
    0.7145    4.2911    0.0000 C   0  0  0  0  0  0  0  0  0  0  0  0
    0.0000    4.7036    0.0000 C   0  0  0  0  0  0  0  0  0  0  0  0
   -0.0000    5.5286    0.0000 C   0  0  0  0  0  0  0  0  0  0  0  0
    0.7145    3.4661    0.0000 C   0  0  0  0  0  0  0  0  0  0  0  0
    1.3819    2.9812    0.0000 C   0  0  0  0  0  0  0  0  0  0  0  0
    1.1270    2.1965    0.0000 C   0  0  0  0  0  0  0  0  0  0  0  0
    0.3020    2.1965    0.0000 C   0  0  0  0  0  0  0  0  0  0  0  0
    0.0470    2.9812    0.0000 N   0  0  0  0  0  0  0  0  0  0  0  0
  1  2  1  0  0  0  0
  2  3  1  0  0  0  0
  3  4  1  0  0  0  0
  4  5  1  0  0  0  0
  5  6  1  0  0  0  0
  5  7  1  0  0  0  0
  7  8  1  0  0  0  0
  8  9  1  0  0  0  0
  8 10  1  0  0  0  0
  3 10  1  0  0  0  0
  2 11  1  0  0  0  0
 11 12  2  0  0  0  0
 11 13  1  0  0  0  0
 13 14  1  0  0  0  0
 14 15  1  0  0  0  0
 15 16  1  0  0  0  0
 16 17  1  0  0  0  0
 17 18  1  0  0  0  0
 13 18  1  0  0  0  0
 16 19  1  0  0  0  0
 19 20  1  0  0  0  0
 20 21  1  0  0  0  0
 21 22  1  0  0  0  0
 22 23  1  0  0  0  0
 19 23  1  0  0  0  0
M  END
> <ID>
CPD_1342

$$$$
CPD_1347
  Mrv1822 09091914012D          

 30 33  0  0  0  0            999 V2000
    0.7145   -2.8875    0.0000 O   0  0  0  0  0  0  0  0  0  0  0  0
    0.7145   -2.0625    0.0000 C   0  0  0  0  0  0  0  0  0  0  0  0
    1.4289   -1.6500    0.0000 C   0  0  0  0  0  0  0  0  0  0  0  0
    2.1434   -2.0625    0.0000 C   0  0  0  0  0  0  0  0  0  0  0  0
    2.1434   -2.8875    0.0000 N   0  0  0  0  0  0  0  0  0  0  0  0
    2.8579   -3.3000    0.0000 C   0  0  0  0  0  0  0  0  0  0  0  0
    2.8579   -4.1250    0.0000 C   0  0  0  0  0  0  0  0  0  0  0  0
    2.1434   -4.5375    0.0000 O   0  0  0  0  0  0  0  0  0  0  0  0
    1.4289   -4.1250    0.0000 C   0  0  0  0  0  0  0  0  0  0  0  0
    1.4289   -3.3000    0.0000 C   0  0  0  0  0  0  0  0  0  0  0  0
    2.8579   -1.6500    0.0000 C   0  0  0  0  0  0  0  0  0  0  0  0
    2.8579   -0.8250    0.0000 O   0  0  0  0  0  0  0  0  0  0  0  0
    3.5724   -2.0625    0.0000 O   0  0  0  0  0  0  0  0  0  0  0  0
    4.2868   -1.6500    0.0000 C   0  0  0  0  0  0  0  0  0  0  0  0
    5.0013   -2.0625    0.0000 C   0  0  0  0  0  0  0  0  0  0  0  0
    5.7550   -1.7269    0.0000 C   0  0  0  0  0  0  0  0  0  0  0  0
    6.3070   -2.3400    0.0000 C   0  0  0  0  0  0  0  0  0  0  0  0
    5.8945   -3.0545    0.0000 C   0  0  0  0  0  0  0  0  0  0  0  0
    5.0875   -2.8830    0.0000 O   0  0  0  0  0  0  0  0  0  0  0  0
    0.0000   -1.6500    0.0000 N   0  0  0  0  0  0  0  0  0  0  0  0
   -0.7145   -2.0625    0.0000 C   0  0  0  0  0  0  0  0  0  0  0  0
   -1.4289   -1.6500    0.0000 C   0  0  0  0  0  0  0  0  0  0  0  0
   -1.4289   -0.8250    0.0000 C   0  0  0  0  0  0  0  0  0  0  0  0
   -0.7145   -0.4125    0.0000 C   0  0  0  0  0  0  0  0  0  0  0  0
    0.0000   -0.8250    0.0000 C   0  0  0  0  0  0  0  0  0  0  0  0
   -2.1434   -0.4125    0.0000 C   0  0  0  0  0  0  0  0  0  0  0  0
   -2.8971   -0.7481    0.0000 C   0  0  0  0  0  0  0  0  0  0  0  0
   -3.4491   -0.1350    0.0000 C   0  0  0  0  0  0  0  0  0  0  0  0
   -3.0366    0.5795    0.0000 C   0  0  0  0  0  0  0  0  0  0  0  0
   -2.2296    0.4080    0.0000 N   0  0  0  0  0  0  0  0  0  0  0  0
  1  2  2  0  0  0  0
  2  3  1  0  0  0  0
  3  4  1  0  0  0  0
  4  5  1  0  0  0  0
  5  6  1  0  0  0  0
  6  7  1  0  0  0  0
  7  8  1  0  0  0  0
  8  9  1  0  0  0  0
  9 10  1  0  0  0  0
  5 10  1  0  0  0  0
  4 11  1  0  0  0  0
 11 12  2  0  0  0  0
 11 13  1  0  0  0  0
 13 14  1  0  0  0  0
 14 15  1  0  0  0  0
 15 16  1  0  0  0  0
 16 17  1  0  0  0  0
 17 18  1  0  0  0  0
 18 19  1  0  0  0  0
 15 19  1  0  0  0  0
  2 20  1  0  0  0  0
 20 21  1  0  0  0  0
 21 22  1  0  0  0  0
 22 23  1  0  0  0  0
 23 24  1  0  0  0  0
 24 25  1  0  0  0  0
 20 25  1  0  0  0  0
 23 26  1  0  0  0  0
 26 27  1  0  0  0  0
 27 28  1  0  0  0  0
 28 29  1  0  0  0  0
 29 30  1  0  0  0  0
 26 30  1  0  0  0  0
M  END
> <ID>
CPD_1347

$$$$
CPD_1352
  Mrv1822 09091914012D          

 30 33  0  0  0  0            999 V2000
    4.2868    4.9500    0.0000 O   0  0  0  0  0  0  0  0  0  0  0  0
    3.5724    4.5375    0.0000 C   0  0  0  0  0  0  0  0  0  0  0  0
    2.8579    4.9500    0.0000 O   0  0  0  0  0  0  0  0  0  0  0  0
    3.5724    3.7125    0.0000 C   0  0  0  0  0  0  0  0  0  0  0  0
    2.8579    3.3000    0.0000 C   0  0  0  0  0  0  0  0  0  0  0  0
    2.8579    2.4750    0.0000 C   0  0  0  0  0  0  0  0  0  0  0  0
    2.1434    2.0625    0.0000 C   0  0  0  0  0  0  0  0  0  0  0  0
    1.4289    2.4750    0.0000 C   0  0  0  0  0  0  0  0  0  0  0  0
    1.4289    3.3000    0.0000 C   0  0  0  0  0  0  0  0  0  0  0  0
    2.1434    3.7125    0.0000 C   0  0  0  0  0  0  0  0  0  0  0  0
    2.1434    1.2375    0.0000 C   0  0  0  0  0  0  0  0  0  0  0  0
    2.8579    0.8250    0.0000 C   0  0  0  0  0  0  0  0  0  0  0  0
    2.8579   -0.0000    0.0000 C   0  0  0  0  0  0  0  0  0  0  0  0
    2.1434   -0.4125    0.0000 C   0  0  0  0  0  0  0  0  0  0  0  0
    2.1434   -1.2375    0.0000 F   0  0  0  0  0  0  0  0  0  0  0  0
    1.4289   -0.0000    0.0000 C   0  0  0  0  0  0  0  0  0  0  0  0
    1.4289    0.8250    0.0000 C   0  0  0  0  0  0  0  0  0  0  0  0
    0.7145   -0.4125    0.0000 C   0  0  0  0  0  0  0  0  0  0  0  0
    0.0000   -0.0000    0.0000 O   0  0  0  0  0  0  0  0  0  0  0  0
    0.7145   -1.2375    0.0000 N   0  0  0  0  0  0  0  0  0  0  0  0
    1.3819   -1.7224    0.0000 C   0  0  0  0  0  0  0  0  0  0  0  0
    1.1270   -2.5070    0.0000 C   0  0  0  0  0  0  0  0  0  0  0  0
    0.3020   -2.5070    0.0000 C   0  0  0  0  0  0  0  0  0  0  0  0
    0.0470   -1.7224    0.0000 C   0  0  0  0  0  0  0  0  0  0  0  0
   -0.7376   -1.4675    0.0000 C   0  0  0  0  0  0  0  0  0  0  0  0
   -1.3507   -2.0195    0.0000 C   0  0  0  0  0  0  0  0  0  0  0  0
   -2.1353   -1.7646    0.0000 C   0  0  0  0  0  0  0  0  0  0  0  0
   -2.3068   -0.9576    0.0000 N   0  0  0  0  0  0  0  0  0  0  0  0
   -1.6937   -0.4056    0.0000 C   0  0  0  0  0  0  0  0  0  0  0  0
   -0.9091   -0.6605    0.0000 C   0  0  0  0  0  0  0  0  0  0  0  0
  1  2  1  0  0  0  0
  2  3  2  0  0  0  0
  2  4  1  0  0  0  0
  4  5  1  0  0  0  0
  5  6  2  0  0  0  0
  6  7  1  0  0  0  0
  7  8  2  0  0  0  0
  8  9  1  0  0  0  0
  9 10  2  0  0  0  0
  5 10  1  0  0  0  0
  7 11  1  0  0  0  0
 11 12  2  0  0  0  0
 12 13  1  0  0  0  0
 13 14  2  0  0  0  0
 14 15  1  0  0  0  0
 14 16  1  0  0  0  0
 16 17  2  0  0  0  0
 11 17  1  0  0  0  0
 16 18  1  0  0  0  0
 18 19  2  0  0  0  0
 18 20  1  0  0  0  0
 20 21  1  0  0  0  0
 21 22  1  0  0  0  0
 22 23  1  0  0  0  0
 23 24  1  0  0  0  0
 20 24  1  0  0  0  0
 24 25  1  0  0  0  0
 25 26  1  0  0  0  0
 26 27  1  0  0  0  0
 27 28  1  0  0  0  0
 28 29  1  0  0  0  0
 29 30  1  0  0  0  0
 25 30  1  0  0  0  0
M  END
> <ID>
CPD_1352

$$$$
CPD_1357
  Mrv1822 09091914012D          

 25 27  0  0  0  0            999 V2000
   -2.1434   -3.7125    0.0000 C   0  0  0  0  0  0  0  0  0  0  0  0
   -1.4289   -4.1250    0.0000 C   0  0  0  0  0  0  0  0  0  0  0  0
   -0.7145   -3.7125    0.0000 C   0  0  0  0  0  0  0  0  0  0  0  0
    0.0000   -4.1250    0.0000 C   0  0  0  0  0  0  0  0  0  0  0  0
    0.0000   -4.9500    0.0000 C   0  0  0  0  0  0  0  0  0  0  0  0
    0.7145   -5.3625    0.0000 C   0  0  0  0  0  0  0  0  0  0  0  0
    1.4289   -4.9500    0.0000 C   0  0  0  0  0  0  0  0  0  0  0  0
    2.1434   -5.3625    0.0000 C   0  0  0  0  0  0  0  0  0  0  0  0
    2.1434   -6.1875    0.0000 O   0  0  0  0  0  0  0  0  0  0  0  0
    2.8579   -4.9500    0.0000 N   0  0  0  0  0  0  0  0  0  0  0  0
    3.5724   -5.3625    0.0000 C   0  0  0  0  0  0  0  0  0  0  0  0
    4.2868   -4.9500    0.0000 C   0  0  0  0  0  0  0  0  0  0  0  0
    5.0013   -5.3625    0.0000 N   0  0  0  0  0  0  0  0  0  0  0  0
    5.0013   -6.1875    0.0000 C   0  0  0  0  0  0  0  0  0  0  0  0
    4.2868   -6.6000    0.0000 N   0  0  0  0  0  0  0  0  0  0  0  0
    3.5724   -6.1875    0.0000 C   0  0  0  0  0  0  0  0  0  0  0  0
    5.7158   -6.6000    0.0000 C   0  0  0  0  0  0  0  0  0  0  0  0
    6.4302   -6.1875    0.0000 C   0  0  0  0  0  0  0  0  0  0  0  0
    7.1447   -6.6000    0.0000 C   0  0  0  0  0  0  0  0  0  0  0  0
    7.1447   -7.4250    0.0000 C   0  0  0  0  0  0  0  0  0  0  0  0
    7.8592   -7.8375    0.0000 O   0  0  0  0  0  0  0  0  0  0  0  0
    6.4302   -7.8375    0.0000 C   0  0  0  0  0  0  0  0  0  0  0  0
    5.7158   -7.4250    0.0000 C   0  0  0  0  0  0  0  0  0  0  0  0
   -0.7145   -5.3625    0.0000 C   0  0  0  0  0  0  0  0  0  0  0  0
   -1.4289   -4.9500    0.0000 C   0  0  0  0  0  0  0  0  0  0  0  0
  1  2  1  0  0  0  0
  2  3  2  0  0  0  0
  3  4  1  0  0  0  0
  4  5  2  0  0  0  0
  5  6  1  0  0  0  0
  6  7  1  0  0  0  0
  7  8  1  0  0  0  0
  8  9  2  0  0  0  0
  8 10  1  0  0  0  0
 10 11  1  0  0  0  0
 11 12  2  0  0  0  0
 12 13  1  0  0  0  0
 13 14  2  0  0  0  0
 14 15  1  0  0  0  0
 15 16  2  0  0  0  0
 11 16  1  0  0  0  0
 14 17  1  0  0  0  0
 17 18  2  0  0  0  0
 18 19  1  0  0  0  0
 19 20  2  0  0  0  0
 20 21  1  0  0  0  0
 20 22  1  0  0  0  0
 22 23  2  0  0  0  0
 17 23  1  0  0  0  0
  5 24  1  0  0  0  0
 24 25  2  0  0  0  0
  2 25  1  0  0  0  0
M  END
> <ID>
CPD_1357

$$$$
CPD_1362
  Mrv1822 09091914012D          

 35 37  0  0  0  0            999 V2000
    2.9440   -3.4491    0.0000 C   0  0  0  0  0  0  0  0  0  0  0  0
    3.3565   -4.1636    0.0000 C   0  0  0  0  0  0  0  0  0  0  0  0
    2.9440   -4.8781    0.0000 C   0  0  0  0  0  0  0  0  0  0  0  0
    2.1190   -4.8781    0.0000 N   0  0  0  0  0  0  0  0  0  0  0  0
    1.7065   -4.1636    0.0000 C   0  0  0  0  0  0  0  0  0  0  0  0
    0.8815   -4.1636    0.0000 C   0  0  0  0  0  0  0  0  0  0  0  0
    0.4690   -3.4491    0.0000 C   0  0  0  0  0  0  0  0  0  0  0  0
    0.8815   -2.7346    0.0000 C   0  0  0  0  0  0  0  0  0  0  0  0
    1.7065   -2.7346    0.0000 C   0  0  0  0  0  0  0  0  0  0  0  0
    2.1190   -3.4491    0.0000 C   0  0  0  0  0  0  0  0  0  0  0  0
    0.4690   -2.0202    0.0000 C   0  0  0  0  0  0  0  0  0  0  0  0
    0.0565   -1.3057    0.0000 F   0  0  0  0  0  0  0  0  0  0  0  0
   -0.2455   -2.4327    0.0000 F   0  0  0  0  0  0  0  0  0  0  0  0
    1.1834   -1.6077    0.0000 F   0  0  0  0  0  0  0  0  0  0  0  0
    1.7065   -5.5925    0.0000 S   0  0  0  0  0  0  0  0  0  0  0  0
    1.2940   -6.3070    0.0000 C   0  0  0  0  0  0  0  0  0  0  0  0
    0.9920   -5.1800    0.0000 O   0  0  0  0  0  0  0  0  0  0  0  0
    2.4209   -6.0050    0.0000 O   0  0  0  0  0  0  0  0  0  0  0  0
    3.3565   -5.5925    0.0000 C   0  0  0  0  0  0  0  0  0  0  0  0
    2.9440   -6.3070    0.0000 O   0  0  0  0  0  0  0  0  0  0  0  0
    4.1815   -5.5925    0.0000 N   0  0  0  0  0  0  0  0  0  0  0  0
    4.5940   -6.3070    0.0000 C   0  0  0  0  0  0  0  0  0  0  0  0
    5.4190   -6.3070    0.0000 C   0  0  0  0  0  0  0  0  0  0  0  0
    5.9039   -5.6396    0.0000 N   0  0  0  0  0  0  0  0  0  0  0  0
    6.6885   -5.8945    0.0000 C   0  0  0  0  0  0  0  0  0  0  0  0
    7.4030   -5.4820    0.0000 C   0  0  0  0  0  0  0  0  0  0  0  0
    8.1175   -5.8945    0.0000 C   0  0  0  0  0  0  0  0  0  0  0  0
    8.1175   -6.7195    0.0000 C   0  0  0  0  0  0  0  0  0  0  0  0
    8.8319   -7.1320    0.0000 Cl  0  0  0  0  0  0  0  0  0  0  0  0
    7.4030   -7.1320    0.0000 C   0  0  0  0  0  0  0  0  0  0  0  0
    6.6885   -6.7195    0.0000 C   0  0  0  0  0  0  0  0  0  0  0  0
    5.9039   -6.9744    0.0000 N   0  0  0  0  0  0  0  0  0  0  0  0
    4.5940   -4.8781    0.0000 C   0  0  0  0  0  0  0  0  0  0  0  0
    4.1815   -4.1636    0.0000 C   0  0  0  0  0  0  0  0  0  0  0  0
    5.4190   -4.8781    0.0000 C   0  0  0  0  0  0  0  0  0  0  0  0
  1  2  1  0  0  0  0
  2  3  1  0  0  0  0
  3  4  1  0  0  0  0
  4  5  1  0  0  0  0
  5  6  2  0  0  0  0
  6  7  1  0  0  0  0
  7  8  2  0  0  0  0
  8  9  1  0  0  0  0
  9 10  2  0  0  0  0
  5 10  1  0  0  0  0
  8 11  1  0  0  0  0
 11 12  1  0  0  0  0
 11 13  1  0  0  0  0
 11 14  1  0  0  0  0
  4 15  1  0  0  0  0
 15 16  1  0  0  0  0
 15 17  2  0  0  0  0
 15 18  2  0  0  0  0
  3 19  1  0  0  0  0
 19 20  2  0  0  0  0
 19 21  1  0  0  0  0
 21 22  1  0  0  0  0
 22 23  1  0  0  0  0
 23 24  2  0  0  0  0
 24 25  1  0  0  0  0
 25 26  2  0  0  0  0
 26 27  1  0  0  0  0
 27 28  2  0  0  0  0
 28 29  1  0  0  0  0
 28 30  1  0  0  0  0
 30 31  2  0  0  0  0
 25 31  1  0  0  0  0
 31 32  1  0  0  0  0
 23 32  1  0  0  0  0
 21 33  1  0  0  0  0
 33 34  1  0  0  0  0
 33 35  1  0  0  0  0
M  END
> <ID>
CPD_1362

$$$$
CPD_1367
  Mrv1822 09091914012D          

 32 35  0  0  0  0            999 V2000
    0.6538   -2.1269    0.0000 C   0  0  0  0  0  0  0  0  0  0  0  0
   -0.1712   -2.1269    0.0000 C   0  0  0  0  0  0  0  0  0  0  0  0
   -0.5837   -2.8414    0.0000 C   0  0  0  0  0  0  0  0  0  0  0  0
   -0.5837   -1.4124    0.0000 N   0  0  0  0  0  0  0  0  0  0  0  0
   -0.1712   -0.6979    0.0000 C   0  0  0  0  0  0  0  0  0  0  0  0
    0.6538   -0.6979    0.0000 C   0  0  0  0  0  0  0  0  0  0  0  0
    1.1387   -0.0305    0.0000 N   0  0  0  0  0  0  0  0  0  0  0  0
    1.9233   -0.2854    0.0000 C   0  0  0  0  0  0  0  0  0  0  0  0
    2.6378    0.1271    0.0000 C   0  0  0  0  0  0  0  0  0  0  0  0
    3.3523   -0.2854    0.0000 C   0  0  0  0  0  0  0  0  0  0  0  0
    3.3523   -1.1104    0.0000 C   0  0  0  0  0  0  0  0  0  0  0  0
    4.0668   -1.5229    0.0000 Cl  0  0  0  0  0  0  0  0  0  0  0  0
    2.6378   -1.5229    0.0000 C   0  0  0  0  0  0  0  0  0  0  0  0
    1.9233   -1.1104    0.0000 C   0  0  0  0  0  0  0  0  0  0  0  0
    1.1387   -1.3654    0.0000 N   0  0  0  0  0  0  0  0  0  0  0  0
   -1.4087   -1.4124    0.0000 C   0  0  0  0  0  0  0  0  0  0  0  0
   -1.8212   -0.6979    0.0000 O   0  0  0  0  0  0  0  0  0  0  0  0
   -1.8212   -2.1269    0.0000 C   0  0  0  0  0  0  0  0  0  0  0  0
   -1.4856   -2.8806    0.0000 C   0  0  0  0  0  0  0  0  0  0  0  0
   -2.0987   -3.4326    0.0000 C   0  0  0  0  0  0  0  0  0  0  0  0
   -2.8132   -3.0201    0.0000 N   0  0  0  0  0  0  0  0  0  0  0  0
   -2.6417   -2.2131    0.0000 N   0  0  0  0  0  0  0  0  0  0  0  0
   -3.1937   -1.6000    0.0000 C   0  0  0  0  0  0  0  0  0  0  0  0
   -4.0007   -1.7716    0.0000 C   0  0  0  0  0  0  0  0  0  0  0  0
   -4.5527   -1.1585    0.0000 C   0  0  0  0  0  0  0  0  0  0  0  0
   -4.2978   -0.3738    0.0000 C   0  0  0  0  0  0  0  0  0  0  0  0
   -3.4908   -0.2023    0.0000 C   0  0  0  0  0  0  0  0  0  0  0  0
   -2.9388   -0.8154    0.0000 C   0  0  0  0  0  0  0  0  0  0  0  0
   -2.0125   -4.2531    0.0000 C   0  0  0  0  0  0  0  0  0  0  0  0
   -1.9263   -5.0736    0.0000 C   0  0  0  0  0  0  0  0  0  0  0  0
   -2.8330   -4.3393    0.0000 C   0  0  0  0  0  0  0  0  0  0  0  0
   -1.1920   -4.1668    0.0000 C   0  0  0  0  0  0  0  0  0  0  0  0
  1  2  1  0  0  0  0
  2  3  1  0  0  0  0
  2  4  1  0  0  0  0
  4  5  1  0  0  0  0
  5  6  1  0  0  0  0
  6  7  2  0  0  0  0
  7  8  1  0  0  0  0
  8  9  2  0  0  0  0
  9 10  1  0  0  0  0
 10 11  2  0  0  0  0
 11 12  1  0  0  0  0
 11 13  1  0  0  0  0
 13 14  2  0  0  0  0
  8 14  1  0  0  0  0
 14 15  1  0  0  0  0
  6 15  1  0  0  0  0
  4 16  1  0  0  0  0
 16 17  2  0  0  0  0
 16 18  1  0  0  0  0
 18 19  2  0  0  0  0
 19 20  1  0  0  0  0
 20 21  2  0  0  0  0
 21 22  1  0  0  0  0
 18 22  1  0  0  0  0
 22 23  1  0  0  0  0
 23 24  2  0  0  0  0
 24 25  1  0  0  0  0
 25 26  2  0  0  0  0
 26 27  1  0  0  0  0
 27 28  2  0  0  0  0
 23 28  1  0  0  0  0
 20 29  1  0  0  0  0
 29 30  1  0  0  0  0
 29 31  1  0  0  0  0
 29 32  1  0  0  0  0
M  END
> <ID>
CPD_1367

$$$$
CPD_1372
  Mrv1822 09091914012D          

 33 35  0  0  0  0            999 V2000
   -1.8212   -0.6979    0.0000 C   0  0  0  0  0  0  0  0  0  0  0  0
   -1.4087    0.0165    0.0000 C   0  0  0  0  0  0  0  0  0  0  0  0
   -1.8212    0.7310    0.0000 C   0  0  0  0  0  0  0  0  0  0  0  0
   -0.5837    0.0165    0.0000 N   0  0  0  0  0  0  0  0  0  0  0  0
   -0.1712   -0.6979    0.0000 C   0  0  0  0  0  0  0  0  0  0  0  0
    0.6538   -0.6979    0.0000 C   0  0  0  0  0  0  0  0  0  0  0  0
    1.1387   -0.0305    0.0000 N   0  0  0  0  0  0  0  0  0  0  0  0
    1.9233   -0.2854    0.0000 C   0  0  0  0  0  0  0  0  0  0  0  0
    2.6378    0.1271    0.0000 C   0  0  0  0  0  0  0  0  0  0  0  0
    3.3523   -0.2854    0.0000 C   0  0  0  0  0  0  0  0  0  0  0  0
    3.3523   -1.1104    0.0000 C   0  0  0  0  0  0  0  0  0  0  0  0
    4.0668   -1.5229    0.0000 Cl  0  0  0  0  0  0  0  0  0  0  0  0
    2.6378   -1.5229    0.0000 C   0  0  0  0  0  0  0  0  0  0  0  0
    1.9233   -1.1104    0.0000 C   0  0  0  0  0  0  0  0  0  0  0  0
    1.1387   -1.3654    0.0000 N   0  0  0  0  0  0  0  0  0  0  0  0
   -0.1712    0.7310    0.0000 C   0  0  0  0  0  0  0  0  0  0  0  0
    0.6538    0.7310    0.0000 O   0  0  0  0  0  0  0  0  0  0  0  0
   -0.5837    1.4455    0.0000 C   0  0  0  0  0  0  0  0  0  0  0  0
   -1.4087    1.4455    0.0000 C   0  0  0  0  0  0  0  0  0  0  0  0
   -1.8212    2.1599    0.0000 N   0  0  0  0  0  0  0  0  0  0  0  0
   -1.4087    2.8744    0.0000 C   0  0  0  0  0  0  0  0  0  0  0  0
   -0.5837    2.8744    0.0000 C   0  0  0  0  0  0  0  0  0  0  0  0
   -0.7270    3.6869    0.0000 F   0  0  0  0  0  0  0  0  0  0  0  0
    0.1915    3.1566    0.0000 F   0  0  0  0  0  0  0  0  0  0  0  0
   -0.1712    2.1599    0.0000 C   0  0  0  0  0  0  0  0  0  0  0  0
    0.6538    2.1599    0.0000 O   0  0  0  0  0  0  0  0  0  0  0  0
   -2.6462    2.1599    0.0000 C   0  0  0  0  0  0  0  0  0  0  0  0
   -3.0587    1.4455    0.0000 O   0  0  0  0  0  0  0  0  0  0  0  0
   -3.0587    2.8744    0.0000 O   0  0  0  0  0  0  0  0  0  0  0  0
   -3.8837    2.8744    0.0000 C   0  0  0  0  0  0  0  0  0  0  0  0
   -4.7087    2.8744    0.0000 C   0  0  0  0  0  0  0  0  0  0  0  0
   -3.8837    3.6994    0.0000 C   0  0  0  0  0  0  0  0  0  0  0  0
   -3.8837    2.0494    0.0000 C   0  0  0  0  0  0  0  0  0  0  0  0
  1  2  1  0  0  0  0
  2  3  1  0  0  0  0
  2  4  1  0  0  0  0
  4  5  1  0  0  0  0
  5  6  1  0  0  0  0
  6  7  2  0  0  0  0
  7  8  1  0  0  0  0
  8  9  2  0  0  0  0
  9 10  1  0  0  0  0
 10 11  2  0  0  0  0
 11 12  1  0  0  0  0
 11 13  1  0  0  0  0
 13 14  2  0  0  0  0
  8 14  1  0  0  0  0
 14 15  1  0  0  0  0
  6 15  1  0  0  0  0
  4 16  1  0  0  0  0
 16 17  2  0  0  0  0
 16 18  1  0  0  0  0
 18 19  1  0  0  0  0
 19 20  1  0  0  0  0
 20 21  1  0  0  0  0
 21 22  1  0  0  0  0
 22 23  1  0  0  0  0
 22 24  1  0  0  0  0
 22 25  1  0  0  0  0
 18 25  1  0  0  0  0
 25 26  1  0  0  0  0
 20 27  1  0  0  0  0
 27 28  2  0  0  0  0
 27 29  1  0  0  0  0
 29 30  1  0  0  0  0
 30 31  1  0  0  0  0
 30 32  1  0  0  0  0
 30 33  1  0  0  0  0
M  END
> <ID>
CPD_1372

$$$$
CPD_1377
  Mrv1822 09091914012D          

 28 29  0  0  0  0            999 V2000
    2.1434   -2.0625    0.0000 N   0  0  0  0  0  0  0  0  0  0  0  0
    1.4289   -2.4750    0.0000 S   0  0  0  0  0  0  0  0  0  0  0  0
    1.0164   -1.7605    0.0000 O   0  0  0  0  0  0  0  0  0  0  0  0
    1.8414   -3.1895    0.0000 O   0  0  0  0  0  0  0  0  0  0  0  0
    0.7145   -2.8875    0.0000 C   0  0  0  0  0  0  0  0  0  0  0  0
    0.7145   -3.7125    0.0000 C   0  0  0  0  0  0  0  0  0  0  0  0
    0.0000   -4.1250    0.0000 C   0  0  0  0  0  0  0  0  0  0  0  0
   -0.7145   -3.7125    0.0000 C   0  0  0  0  0  0  0  0  0  0  0  0
   -0.7145   -2.8875    0.0000 C   0  0  0  0  0  0  0  0  0  0  0  0
    0.0000   -2.4750    0.0000 C   0  0  0  0  0  0  0  0  0  0  0  0
    1.4289   -4.1250    0.0000 C   0  0  0  0  0  0  0  0  0  0  0  0
    1.4289   -4.9500    0.0000 O   0  0  0  0  0  0  0  0  0  0  0  0
    2.1434   -3.7125    0.0000 N   0  0  0  0  0  0  0  0  0  0  0  0
    2.8579   -4.1250    0.0000 C   0  0  0  0  0  0  0  0  0  0  0  0
    3.5724   -3.7125    0.0000 C   0  0  0  0  0  0  0  0  0  0  0  0
    4.2868   -4.1250    0.0000 C   0  0  0  0  0  0  0  0  0  0  0  0
    5.0013   -3.7125    0.0000 O   0  0  0  0  0  0  0  0  0  0  0  0
    5.7158   -4.1250    0.0000 C   0  0  0  0  0  0  0  0  0  0  0  0
    6.4302   -3.7125    0.0000 C   0  0  0  0  0  0  0  0  0  0  0  0
    6.4302   -2.8875    0.0000 F   0  0  0  0  0  0  0  0  0  0  0  0
    7.1447   -4.1250    0.0000 C   0  0  0  0  0  0  0  0  0  0  0  0
    7.8592   -3.7125    0.0000 F   0  0  0  0  0  0  0  0  0  0  0  0
    7.1447   -4.9500    0.0000 C   0  0  0  0  0  0  0  0  0  0  0  0
    7.8592   -5.3625    0.0000 F   0  0  0  0  0  0  0  0  0  0  0  0
    6.4302   -5.3625    0.0000 C   0  0  0  0  0  0  0  0  0  0  0  0
    6.4302   -6.1875    0.0000 F   0  0  0  0  0  0  0  0  0  0  0  0
    5.7158   -4.9500    0.0000 C   0  0  0  0  0  0  0  0  0  0  0  0
    5.0013   -5.3625    0.0000 F   0  0  0  0  0  0  0  0  0  0  0  0
  1  2  1  0  0  0  0
  2  3  2  0  0  0  0
  2  4  2  0  0  0  0
  2  5  1  0  0  0  0
  5  6  2  0  0  0  0
  6  7  1  0  0  0  0
  7  8  2  0  0  0  0
  8  9  1  0  0  0  0
  9 10  2  0  0  0  0
  5 10  1  0  0  0  0
  6 11  1  0  0  0  0
 11 12  2  0  0  0  0
 11 13  1  0  0  0  0
 13 14  1  0  0  0  0
 14 15  1  0  0  0  0
 15 16  1  0  0  0  0
 16 17  1  0  0  0  0
 17 18  1  0  0  0  0
 18 19  2  0  0  0  0
 19 20  1  0  0  0  0
 19 21  1  0  0  0  0
 21 22  1  0  0  0  0
 21 23  2  0  0  0  0
 23 24  1  0  0  0  0
 23 25  1  0  0  0  0
 25 26  1  0  0  0  0
 25 27  2  0  0  0  0
 18 27  1  0  0  0  0
 27 28  1  0  0  0  0
M  END
> <ID>
CPD_1377

$$$$
CPD_1382
  Mrv1822 09091914012D          

 33 35  0  0  0  0            999 V2000
   -2.1434   -2.8875    0.0000 C   0  0  0  0  0  0  0  0  0  0  0  0
   -1.4289   -2.4750    0.0000 O   0  0  0  0  0  0  0  0  0  0  0  0
   -0.7145   -2.8875    0.0000 C   0  0  0  0  0  0  0  0  0  0  0  0
    0.0000   -2.4750    0.0000 C   0  0  0  0  0  0  0  0  0  0  0  0
    0.0000   -1.6500    0.0000 C   0  0  0  0  0  0  0  0  0  0  0  0
   -0.7145   -1.2375    0.0000 N   0  0  0  0  0  0  0  0  0  0  0  0
   -1.4681   -1.5731    0.0000 C   0  0  0  0  0  0  0  0  0  0  0  0
   -2.0202   -0.9600    0.0000 C   0  0  0  0  0  0  0  0  0  0  0  0
   -2.8407   -1.0462    0.0000 Cl  0  0  0  0  0  0  0  0  0  0  0  0
   -1.6077   -0.2455    0.0000 C   0  0  0  0  0  0  0  0  0  0  0  0
   -0.8007   -0.4170    0.0000 N   0  0  0  0  0  0  0  0  0  0  0  0
    0.7145   -2.8875    0.0000 C   0  0  0  0  0  0  0  0  0  0  0  0
    0.7145   -3.7125    0.0000 C   0  0  0  0  0  0  0  0  0  0  0  0
    0.0000   -4.1250    0.0000 C   0  0  0  0  0  0  0  0  0  0  0  0
   -0.7145   -3.7125    0.0000 C   0  0  0  0  0  0  0  0  0  0  0  0
    1.4289   -4.1250    0.0000 C   0  0  0  0  0  0  0  0  0  0  0  0
    1.4289   -4.9500    0.0000 O   0  0  0  0  0  0  0  0  0  0  0  0
    2.1434   -3.7125    0.0000 N   0  0  0  0  0  0  0  0  0  0  0  0
    2.8579   -4.1250    0.0000 C   0  0  0  0  0  0  0  0  0  0  0  0
    3.5724   -3.7125    0.0000 C   0  0  0  0  0  0  0  0  0  0  0  0
    4.2868   -4.1250    0.0000 C   0  0  0  0  0  0  0  0  0  0  0  0
    5.0013   -3.7125    0.0000 O   0  0  0  0  0  0  0  0  0  0  0  0
    5.7158   -4.1250    0.0000 C   0  0  0  0  0  0  0  0  0  0  0  0
    6.4302   -3.7125    0.0000 C   0  0  0  0  0  0  0  0  0  0  0  0
    6.4302   -2.8875    0.0000 F   0  0  0  0  0  0  0  0  0  0  0  0
    7.1447   -4.1250    0.0000 C   0  0  0  0  0  0  0  0  0  0  0  0
    7.8592   -3.7125    0.0000 F   0  0  0  0  0  0  0  0  0  0  0  0
    7.1447   -4.9500    0.0000 C   0  0  0  0  0  0  0  0  0  0  0  0
    7.8592   -5.3625    0.0000 F   0  0  0  0  0  0  0  0  0  0  0  0
    6.4302   -5.3625    0.0000 C   0  0  0  0  0  0  0  0  0  0  0  0
    6.4302   -6.1875    0.0000 F   0  0  0  0  0  0  0  0  0  0  0  0
    5.7158   -4.9500    0.0000 C   0  0  0  0  0  0  0  0  0  0  0  0
    5.0013   -5.3625    0.0000 F   0  0  0  0  0  0  0  0  0  0  0  0
  1  2  1  0  0  0  0
  2  3  1  0  0  0  0
  3  4  2  0  0  0  0
  4  5  1  0  0  0  0
  5  6  1  0  0  0  0
  6  7  1  0  0  0  0
  7  8  2  0  0  0  0
  8  9  1  0  0  0  0
  8 10  1  0  0  0  0
 10 11  2  0  0  0  0
  6 11  1  0  0  0  0
  4 12  1  0  0  0  0
 12 13  2  0  0  0  0
 13 14  1  0  0  0  0
 14 15  2  0  0  0  0
  3 15  1  0  0  0  0
 13 16  1  0  0  0  0
 16 17  2  0  0  0  0
 16 18  1  0  0  0  0
 18 19  1  0  0  0  0
 19 20  1  0  0  0  0
 20 21  1  0  0  0  0
 21 22  1  0  0  0  0
 22 23  1  0  0  0  0
 23 24  2  0  0  0  0
 24 25  1  0  0  0  0
 24 26  1  0  0  0  0
 26 27  1  0  0  0  0
 26 28  2  0  0  0  0
 28 29  1  0  0  0  0
 28 30  1  0  0  0  0
 30 31  1  0  0  0  0
 30 32  2  0  0  0  0
 23 32  1  0  0  0  0
 32 33  1  0  0  0  0
M  END
> <ID>
CPD_1382

$$$$
CPD_1387
  Mrv1822 09091914012D          

 35 38  0  0  0  0            999 V2000
    1.4289   -9.9000    0.0000 C   0  0  0  0  0  0  0  0  0  0  0  0
    2.1434  -10.3125    0.0000 C   0  0  0  0  0  0  0  0  0  0  0  0
    2.8579   -9.9000    0.0000 C   0  0  0  0  0  0  0  0  0  0  0  0
    2.8579   -9.0750    0.0000 C   0  0  0  0  0  0  0  0  0  0  0  0
    2.1434   -8.6625    0.0000 O   0  0  0  0  0  0  0  0  0  0  0  0
    2.1434   -7.8375    0.0000 C   0  0  0  0  0  0  0  0  0  0  0  0
    1.4289   -7.4250    0.0000 C   0  0  0  0  0  0  0  0  0  0  0  0
    1.4289   -6.6000    0.0000 C   0  0  0  0  0  0  0  0  0  0  0  0
    0.7145   -6.1875    0.0000 F   0  0  0  0  0  0  0  0  0  0  0  0
    2.1434   -6.1875    0.0000 C   0  0  0  0  0  0  0  0  0  0  0  0
    2.1434   -5.3625    0.0000 N   0  0  0  0  0  0  0  0  0  0  0  0
    1.4289   -4.9500    0.0000 C   0  0  0  0  0  0  0  0  0  0  0  0
    0.7145   -5.3625    0.0000 O   0  0  0  0  0  0  0  0  0  0  0  0
    1.4289   -4.1250    0.0000 C   0  0  0  0  0  0  0  0  0  0  0  0
    0.7145   -3.7125    0.0000 C   0  0  0  0  0  0  0  0  0  0  0  0
    0.7145   -2.8875    0.0000 C   0  0  0  0  0  0  0  0  0  0  0  0
    1.4289   -2.4750    0.0000 N   0  0  0  0  0  0  0  0  0  0  0  0
    2.1434   -2.8875    0.0000 C   0  0  0  0  0  0  0  0  0  0  0  0
    2.1434   -3.7125    0.0000 C   0  0  0  0  0  0  0  0  0  0  0  0
    1.4289   -1.6500    0.0000 C   0  0  0  0  0  0  0  0  0  0  0  0
    0.7145   -1.2375    0.0000 C   0  0  0  0  0  0  0  0  0  0  0  0
    0.7145   -0.4125    0.0000 C   0  0  0  0  0  0  0  0  0  0  0  0
    1.4289    0.0000    0.0000 N   0  0  0  0  0  0  0  0  0  0  0  0
    2.1434   -0.4125    0.0000 C   0  0  0  0  0  0  0  0  0  0  0  0
    2.8579    0.0000    0.0000 C   0  0  0  0  0  0  0  0  0  0  0  0
    3.5724   -0.4125    0.0000 C   0  0  0  0  0  0  0  0  0  0  0  0
    3.5724   -1.2375    0.0000 C   0  0  0  0  0  0  0  0  0  0  0  0
    4.2868   -1.6500    0.0000 C   0  0  0  0  0  0  0  0  0  0  0  0
    2.8579   -1.6500    0.0000 C   0  0  0  0  0  0  0  0  0  0  0  0
    2.1434   -1.2375    0.0000 C   0  0  0  0  0  0  0  0  0  0  0  0
    0.0000   -1.6500    0.0000 C   0  0  0  0  0  0  0  0  0  0  0  0
   -0.7145   -2.0625    0.0000 N   0  0  0  0  0  0  0  0  0  0  0  0
    2.8579   -6.6000    0.0000 C   0  0  0  0  0  0  0  0  0  0  0  0
    3.5724   -6.1875    0.0000 F   0  0  0  0  0  0  0  0  0  0  0  0
    2.8579   -7.4250    0.0000 C   0  0  0  0  0  0  0  0  0  0  0  0
  1  2  1  0  0  0  0
  2  3  1  0  0  0  0
  3  4  1  0  0  0  0
  4  5  1  0  0  0  0
  5  6  1  0  0  0  0
  6  7  2  0  0  0  0
  7  8  1  0  0  0  0
  8  9  1  0  0  0  0
  8 10  2  0  0  0  0
 10 11  1  0  0  0  0
 11 12  1  0  0  0  0
 12 13  2  0  0  0  0
 12 14  1  0  0  0  0
 14 15  1  0  0  0  0
 15 16  1  0  0  0  0
 16 17  1  0  0  0  0
 17 18  1  0  0  0  0
 18 19  1  0  0  0  0
 14 19  1  0  0  0  0
 17 20  1  0  0  0  0
 20 21  2  0  0  0  0
 21 22  1  0  0  0  0
 22 23  2  0  0  0  0
 23 24  1  0  0  0  0
 24 25  2  0  0  0  0
 25 26  1  0  0  0  0
 26 27  2  0  0  0  0
 27 28  1  0  0  0  0
 27 29  1  0  0  0  0
 29 30  2  0  0  0  0
 20 30  1  0  0  0  0
 24 30  1  0  0  0  0
 21 31  1  0  0  0  0
 31 32  3  0  0  0  0
 10 33  1  0  0  0  0
 33 34  1  0  0  0  0
 33 35  2  0  0  0  0
  6 35  1  0  0  0  0
M  END
> <ID>
CPD_1387

$$$$
CPD_1392
  Mrv1822 09091914012D          

 23 24  0  0  0  0            999 V2000
    0.0000   -2.4750    0.0000 C   0  0  0  0  0  0  0  0  0  0  0  0
    0.7145   -2.8875    0.0000 C   0  0  0  0  0  0  0  0  0  0  0  0
    1.4289   -2.4750    0.0000 C   0  0  0  0  0  0  0  0  0  0  0  0
    2.1434   -2.8875    0.0000 C   0  0  0  0  0  0  0  0  0  0  0  0
    2.8579   -2.4750    0.0000 O   0  0  0  0  0  0  0  0  0  0  0  0
    3.5724   -2.8875    0.0000 C   0  0  0  0  0  0  0  0  0  0  0  0
    4.2868   -2.4750    0.0000 C   0  0  0  0  0  0  0  0  0  0  0  0
    5.0013   -2.8875    0.0000 C   0  0  0  0  0  0  0  0  0  0  0  0
    5.7158   -2.4750    0.0000 F   0  0  0  0  0  0  0  0  0  0  0  0
    5.0013   -3.7125    0.0000 C   0  0  0  0  0  0  0  0  0  0  0  0
    5.7158   -4.1250    0.0000 N   0  0  0  0  0  0  0  0  0  0  0  0
    6.4302   -3.7125    0.0000 C   0  0  0  0  0  0  0  0  0  0  0  0
    6.4302   -2.8875    0.0000 O   0  0  0  0  0  0  0  0  0  0  0  0
    7.1447   -4.1250    0.0000 C   0  0  0  0  0  0  0  0  0  0  0  0
    7.8984   -3.7894    0.0000 C   0  0  0  0  0  0  0  0  0  0  0  0
    8.4504   -4.4025    0.0000 C   0  0  0  0  0  0  0  0  0  0  0  0
    9.2709   -4.3163    0.0000 Br  0  0  0  0  0  0  0  0  0  0  0  0
    8.0379   -5.1170    0.0000 C   0  0  0  0  0  0  0  0  0  0  0  0
    8.3735   -5.8707    0.0000 Br  0  0  0  0  0  0  0  0  0  0  0  0
    7.2309   -4.9455    0.0000 O   0  0  0  0  0  0  0  0  0  0  0  0
    4.2868   -4.1250    0.0000 C   0  0  0  0  0  0  0  0  0  0  0  0
    4.2868   -4.9500    0.0000 F   0  0  0  0  0  0  0  0  0  0  0  0
    3.5724   -3.7125    0.0000 C   0  0  0  0  0  0  0  0  0  0  0  0
  1  2  1  0  0  0  0
  2  3  1  0  0  0  0
  3  4  1  0  0  0  0
  4  5  1  0  0  0  0
  5  6  1  0  0  0  0
  6  7  2  0  0  0  0
  7  8  1  0  0  0  0
  8  9  1  0  0  0  0
  8 10  2  0  0  0  0
 10 11  1  0  0  0  0
 11 12  1  0  0  0  0
 12 13  2  0  0  0  0
 12 14  1  0  0  0  0
 14 15  2  0  0  0  0
 15 16  1  0  0  0  0
 16 17  1  0  0  0  0
 16 18  2  0  0  0  0
 18 19  1  0  0  0  0
 18 20  1  0  0  0  0
 14 20  1  0  0  0  0
 10 21  1  0  0  0  0
 21 22  1  0  0  0  0
 21 23  2  0  0  0  0
  6 23  1  0  0  0  0
M  END
> <ID>
CPD_1392

$$$$
CPD_1397
  Mrv1822 09091914012D          

 34 35  0  0  0  0            999 V2000
   -1.4289   -3.3000    0.0000 C   0  0  0  0  0  0  0  0  0  0  0  0
   -0.7145   -2.8875    0.0000 C   0  0  0  0  0  0  0  0  0  0  0  0
   -0.7145   -2.0625    0.0000 C   0  0  0  0  0  0  0  0  0  0  0  0
   -1.4289   -1.6500    0.0000 C   0  0  0  0  0  0  0  0  0  0  0  0
   -1.4289   -0.8250    0.0000 C   0  0  0  0  0  0  0  0  0  0  0  0
   -2.1434   -0.4125    0.0000 N   0  0  0  0  0  0  0  0  0  0  0  0
   -2.8579   -0.8250    0.0000 C   0  0  0  0  0  0  0  0  0  0  0  0
   -2.8579   -1.6500    0.0000 O   0  0  0  0  0  0  0  0  0  0  0  0
   -3.5724   -0.4125    0.0000 C   0  0  0  0  0  0  0  0  0  0  0  0
   -4.3570   -0.1576    0.0000 C   0  0  0  0  0  0  0  0  0  0  0  0
   -4.3570    0.6674    0.0000 C   0  0  0  0  0  0  0  0  0  0  0  0
   -3.5724    0.9224    0.0000 N   0  0  0  0  0  0  0  0  0  0  0  0
   -3.0874    0.2549    0.0000 C   0  0  0  0  0  0  0  0  0  0  0  0
   -2.2624    0.2549    0.0000 O   0  0  0  0  0  0  0  0  0  0  0  0
   -3.9079   -1.1662    0.0000 N   0  0  0  0  0  0  0  0  0  0  0  0
   -4.7284   -1.2524    0.0000 C   0  0  0  0  0  0  0  0  0  0  0  0
   -5.0640   -2.0061    0.0000 O   0  0  0  0  0  0  0  0  0  0  0  0
   -5.2133   -0.5850    0.0000 O   0  0  0  0  0  0  0  0  0  0  0  0
   -6.0338   -0.6712    0.0000 C   0  0  0  0  0  0  0  0  0  0  0  0
   -6.8543   -0.7574    0.0000 C   0  0  0  0  0  0  0  0  0  0  0  0
   -5.9476   -1.4917    0.0000 C   0  0  0  0  0  0  0  0  0  0  0  0
   -6.1200    0.1493    0.0000 C   0  0  0  0  0  0  0  0  0  0  0  0
   -0.7145   -0.4125    0.0000 C   0  0  0  0  0  0  0  0  0  0  0  0
   -0.0000   -0.8250    0.0000 O   0  0  0  0  0  0  0  0  0  0  0  0
   -0.7145    0.4125    0.0000 O   0  0  0  0  0  0  0  0  0  0  0  0
   -0.0000   -1.6500    0.0000 C   0  0  0  0  0  0  0  0  0  0  0  0
    0.7145   -2.0625    0.0000 C   0  0  0  0  0  0  0  0  0  0  0  0
    1.4289   -1.6500    0.0000 O   0  0  0  0  0  0  0  0  0  0  0  0
    1.4289   -0.8250    0.0000 C   0  0  0  0  0  0  0  0  0  0  0  0
    1.4289    0.0000    0.0000 F   0  0  0  0  0  0  0  0  0  0  0  0
    2.2539   -0.8250    0.0000 F   0  0  0  0  0  0  0  0  0  0  0  0
    0.6039   -0.8250    0.0000 F   0  0  0  0  0  0  0  0  0  0  0  0
    0.7145   -2.8875    0.0000 C   0  0  0  0  0  0  0  0  0  0  0  0
    0.0000   -3.3000    0.0000 C   0  0  0  0  0  0  0  0  0  0  0  0
  1  2  1  0  0  0  0
  2  3  2  0  0  0  0
  3  4  1  0  0  0  0
  4  5  1  0  0  0  0
  5  6  1  0  0  0  0
  6  7  1  0  0  0  0
  7  8  2  0  0  0  0
  7  9  1  0  0  0  0
  9 10  1  0  0  0  0
 10 11  1  0  0  0  0
 11 12  1  0  0  0  0
 12 13  1  0  0  0  0
  9 13  1  0  0  0  0
 13 14  2  0  0  0  0
  9 15  1  0  0  0  0
 15 16  1  0  0  0  0
 16 17  2  0  0  0  0
 16 18  1  0  0  0  0
 18 19  1  0  0  0  0
 19 20  1  0  0  0  0
 19 21  1  0  0  0  0
 19 22  1  0  0  0  0
  5 23  1  0  0  0  0
 23 24  1  0  0  0  0
 23 25  2  0  0  0  0
  3 26  1  0  0  0  0
 26 27  2  0  0  0  0
 27 28  1  0  0  0  0
 28 29  1  0  0  0  0
 29 30  1  0  0  0  0
 29 31  1  0  0  0  0
 29 32  1  0  0  0  0
 27 33  1  0  0  0  0
 33 34  2  0  0  0  0
  2 34  1  0  0  0  0
M  END
> <ID>
CPD_1397

$$$$
CPD_1402
  Mrv1822 09091914012D          

 32 34  0  0  0  0            999 V2000
    0.1295    0.5786    0.0000 C   0  0  0  0  0  0  0  0  0  0  0  0
   -0.4836    0.0265    0.0000 C   0  0  0  0  0  0  0  0  0  0  0  0
   -0.3121   -0.7804    0.0000 C   0  0  0  0  0  0  0  0  0  0  0  0
   -0.9252   -1.3325    0.0000 C   0  0  0  0  0  0  0  0  0  0  0  0
   -1.7098   -1.0775    0.0000 C   0  0  0  0  0  0  0  0  0  0  0  0
   -1.8814   -0.2706    0.0000 C   0  0  0  0  0  0  0  0  0  0  0  0
   -1.2683    0.2815    0.0000 C   0  0  0  0  0  0  0  0  0  0  0  0
   -0.7537   -2.1394    0.0000 C   0  0  0  0  0  0  0  0  0  0  0  0
    0.0000   -2.4750    0.0000 C   0  0  0  0  0  0  0  0  0  0  0  0
   -0.0862   -3.2955    0.0000 C   0  0  0  0  0  0  0  0  0  0  0  0
   -0.8932   -3.4670    0.0000 N   0  0  0  0  0  0  0  0  0  0  0  0
   -1.3057   -2.7525    0.0000 N   0  0  0  0  0  0  0  0  0  0  0  0
    0.7145   -2.0625    0.0000 C   0  0  0  0  0  0  0  0  0  0  0  0
    0.7145   -1.2375    0.0000 O   0  0  0  0  0  0  0  0  0  0  0  0
    1.4289   -2.4750    0.0000 N   0  0  0  0  0  0  0  0  0  0  0  0
    2.1434   -2.0625    0.0000 C   0  0  0  0  0  0  0  0  0  0  0  0
    2.1434   -1.2375    0.0000 C   0  0  0  0  0  0  0  0  0  0  0  0
    2.8579   -0.8250    0.0000 C   0  0  0  0  0  0  0  0  0  0  0  0
    2.8579    0.0000    0.0000 C   0  0  0  0  0  0  0  0  0  0  0  0
    2.1434    0.4125    0.0000 C   0  0  0  0  0  0  0  0  0  0  0  0
    3.5724    0.4125    0.0000 C   0  0  0  0  0  0  0  0  0  0  0  0
    4.2868    0.0000    0.0000 C   0  0  0  0  0  0  0  0  0  0  0  0
    4.2868   -0.8250    0.0000 C   0  0  0  0  0  0  0  0  0  0  0  0
    5.0013   -1.2375    0.0000 O   0  0  0  0  0  0  0  0  0  0  0  0
    5.7158   -0.8250    0.0000 C   0  0  0  0  0  0  0  0  0  0  0  0
    6.4302   -0.4125    0.0000 F   0  0  0  0  0  0  0  0  0  0  0  0
    6.1283   -1.5395    0.0000 F   0  0  0  0  0  0  0  0  0  0  0  0
    5.3033   -0.1105    0.0000 F   0  0  0  0  0  0  0  0  0  0  0  0
    3.5724   -1.2375    0.0000 C   0  0  0  0  0  0  0  0  0  0  0  0
    2.8579   -2.4750    0.0000 C   0  0  0  0  0  0  0  0  0  0  0  0
    2.8579   -3.3000    0.0000 O   0  0  0  0  0  0  0  0  0  0  0  0
    3.5724   -2.0625    0.0000 O   0  0  0  0  0  0  0  0  0  0  0  0
  1  2  1  0  0  0  0
  2  3  2  0  0  0  0
  3  4  1  0  0  0  0
  4  5  2  0  0  0  0
  5  6  1  0  0  0  0
  6  7  2  0  0  0  0
  2  7  1  0  0  0  0
  4  8  1  0  0  0  0
  8  9  2  0  0  0  0
  9 10  1  0  0  0  0
 10 11  2  0  0  0  0
 11 12  1  0  0  0  0
  8 12  1  0  0  0  0
  9 13  1  0  0  0  0
 13 14  2  0  0  0  0
 13 15  1  0  0  0  0
 15 16  1  0  0  0  0
 16 17  1  0  0  0  0
 17 18  1  0  0  0  0
 18 19  2  0  0  0  0
 19 20  1  0  0  0  0
 19 21  1  0  0  0  0
 21 22  2  0  0  0  0
 22 23  1  0  0  0  0
 23 24  1  0  0  0  0
 24 25  1  0  0  0  0
 25 26  1  0  0  0  0
 25 27  1  0  0  0  0
 25 28  1  0  0  0  0
 23 29  2  0  0  0  0
 18 29  1  0  0  0  0
 16 30  1  0  0  0  0
 30 31  1  0  0  0  0
 30 32  2  0  0  0  0
M  END
> <ID>
CPD_1402

$$$$
CPD_1407
  Mrv1822 09091914012D          

 25 26  0  0  0  0            999 V2000
    0.7145    2.8875    0.0000 C   0  0  0  0  0  0  0  0  0  0  0  0
    0.7145    2.0625    0.0000 O   0  0  0  0  0  0  0  0  0  0  0  0
    1.4289    1.6500    0.0000 C   0  0  0  0  0  0  0  0  0  0  0  0
    2.1434    2.0625    0.0000 O   0  0  0  0  0  0  0  0  0  0  0  0
    1.4289    0.8250    0.0000 C   0  0  0  0  0  0  0  0  0  0  0  0
    0.6039    0.8250    0.0000 C   0  0  0  0  0  0  0  0  0  0  0  0
    1.4289   -0.0000    0.0000 N   0  0  0  0  0  0  0  0  0  0  0  0
    0.7145   -0.4125    0.0000 C   0  0  0  0  0  0  0  0  0  0  0  0
    0.0000    0.0000    0.0000 O   0  0  0  0  0  0  0  0  0  0  0  0
    0.7145   -1.2375    0.0000 C   0  0  0  0  0  0  0  0  0  0  0  0
    1.3819   -1.7224    0.0000 C   0  0  0  0  0  0  0  0  0  0  0  0
    1.1270   -2.5070    0.0000 S   0  0  0  0  0  0  0  0  0  0  0  0
    0.3020   -2.5070    0.0000 C   0  0  0  0  0  0  0  0  0  0  0  0
    0.0470   -1.7224    0.0000 N   0  0  0  0  0  0  0  0  0  0  0  0
   -0.1830   -3.1745    0.0000 C   0  0  0  0  0  0  0  0  0  0  0  0
    0.1526   -3.9282    0.0000 C   0  0  0  0  0  0  0  0  0  0  0  0
   -0.3323   -4.5956    0.0000 C   0  0  0  0  0  0  0  0  0  0  0  0
   -1.1528   -4.5094    0.0000 C   0  0  0  0  0  0  0  0  0  0  0  0
   -1.4884   -3.7557    0.0000 C   0  0  0  0  0  0  0  0  0  0  0  0
   -2.3088   -3.6695    0.0000 C   0  0  0  0  0  0  0  0  0  0  0  0
   -1.0034   -3.0882    0.0000 C   0  0  0  0  0  0  0  0  0  0  0  0
    2.2539    0.8250    0.0000 C   0  0  0  0  0  0  0  0  0  0  0  0
    3.0789    0.8250    0.0000 F   0  0  0  0  0  0  0  0  0  0  0  0
    2.2539   -0.0000    0.0000 F   0  0  0  0  0  0  0  0  0  0  0  0
    2.2539    1.6500    0.0000 F   0  0  0  0  0  0  0  0  0  0  0  0
  1  2  1  0  0  0  0
  2  3  1  0  0  0  0
  3  4  2  0  0  0  0
  3  5  1  0  0  0  0
  5  6  1  0  0  0  0
  5  7  1  0  0  0  0
  7  8  1  0  0  0  0
  8  9  2  0  0  0  0
  8 10  1  0  0  0  0
 10 11  2  0  0  0  0
 11 12  1  0  0  0  0
 12 13  1  0  0  0  0
 13 14  2  0  0  0  0
 10 14  1  0  0  0  0
 13 15  1  0  0  0  0
 15 16  2  0  0  0  0
 16 17  1  0  0  0  0
 17 18  2  0  0  0  0
 18 19  1  0  0  0  0
 19 20  1  0  0  0  0
 19 21  2  0  0  0  0
 15 21  1  0  0  0  0
  5 22  1  0  0  0  0
 22 23  1  0  0  0  0
 22 24  1  0  0  0  0
 22 25  1  0  0  0  0
M  END
> <ID>
CPD_1407

$$$$
CPD_1412
  Mrv1822 09091914012D          

 28 28  0  0  0  0            999 V2000
   -2.7770    5.2520    0.0000 C   0  0  0  0  0  0  0  0  0  0  0  0
   -1.9520    5.2520    0.0000 O   0  0  0  0  0  0  0  0  0  0  0  0
   -1.5395    4.5375    0.0000 C   0  0  0  0  0  0  0  0  0  0  0  0
   -1.9520    3.8230    0.0000 O   0  0  0  0  0  0  0  0  0  0  0  0
   -0.7145    4.5375    0.0000 C   0  0  0  0  0  0  0  0  0  0  0  0
    0.1105    4.5375    0.0000 C   0  0  0  0  0  0  0  0  0  0  0  0
   -0.7145    3.7125    0.0000 N   0  0  0  0  0  0  0  0  0  0  0  0
    0.0000    3.3000    0.0000 C   0  0  0  0  0  0  0  0  0  0  0  0
    0.7145    3.7125    0.0000 O   0  0  0  0  0  0  0  0  0  0  0  0
    0.0000    2.4750    0.0000 C   0  0  0  0  0  0  0  0  0  0  0  0
    0.7145    2.0625    0.0000 C   0  0  0  0  0  0  0  0  0  0  0  0
    0.7145    1.2375    0.0000 C   0  0  0  0  0  0  0  0  0  0  0  0
    1.4289    0.8250    0.0000 C   0  0  0  0  0  0  0  0  0  0  0  0
    1.4289   -0.0000    0.0000 C   0  0  0  0  0  0  0  0  0  0  0  0
    0.7145   -0.4125    0.0000 C   0  0  0  0  0  0  0  0  0  0  0  0
    0.0000    0.0000    0.0000 C   0  0  0  0  0  0  0  0  0  0  0  0
    0.0000    0.8250    0.0000 C   0  0  0  0  0  0  0  0  0  0  0  0
    0.7145   -1.2375    0.0000 C   0  0  0  0  0  0  0  0  0  0  0  0
    0.7145   -2.0625    0.0000 C   0  0  0  0  0  0  0  0  0  0  0  0
   -0.1105   -1.2375    0.0000 C   0  0  0  0  0  0  0  0  0  0  0  0
    1.5395   -1.2375    0.0000 C   0  0  0  0  0  0  0  0  0  0  0  0
   -0.7145    2.0625    0.0000 C   0  0  0  0  0  0  0  0  0  0  0  0
   -0.7145    1.2375    0.0000 C   0  0  0  0  0  0  0  0  0  0  0  0
   -1.4289    2.4750    0.0000 O   0  0  0  0  0  0  0  0  0  0  0  0
   -0.7145    5.3625    0.0000 C   0  0  0  0  0  0  0  0  0  0  0  0
   -0.7145    6.1875    0.0000 F   0  0  0  0  0  0  0  0  0  0  0  0
    0.1105    5.3625    0.0000 F   0  0  0  0  0  0  0  0  0  0  0  0
   -1.5395    5.3625    0.0000 F   0  0  0  0  0  0  0  0  0  0  0  0
  1  2  1  0  0  0  0
  2  3  1  0  0  0  0
  3  4  2  0  0  0  0
  3  5  1  0  0  0  0
  5  6  1  0  0  0  0
  5  7  1  0  0  0  0
  7  8  1  0  0  0  0
  8  9  2  0  0  0  0
  8 10  1  0  0  0  0
 10 11  1  0  0  0  0
 11 12  1  0  0  0  0
 12 13  2  0  0  0  0
 13 14  1  0  0  0  0
 14 15  2  0  0  0  0
 15 16  1  0  0  0  0
 16 17  2  0  0  0  0
 12 17  1  0  0  0  0
 15 18  1  0  0  0  0
 18 19  1  0  0  0  0
 18 20  1  0  0  0  0
 18 21  1  0  0  0  0
 10 22  1  0  0  0  0
 22 23  1  0  0  0  0
 22 24  2  0  0  0  0
  5 25  1  0  0  0  0
 25 26  1  0  0  0  0
 25 27  1  0  0  0  0
 25 28  1  0  0  0  0
M  END
> <ID>
CPD_1412

$$$$
CPD_1417
  Mrv1822 09091914012D          

 21 21  0  0  0  0            999 V2000
   -2.0625    4.0145    0.0000 C   0  0  0  0  0  0  0  0  0  0  0  0
   -1.2375    4.0145    0.0000 O   0  0  0  0  0  0  0  0  0  0  0  0
   -0.8250    3.3000    0.0000 C   0  0  0  0  0  0  0  0  0  0  0  0
   -1.2375    2.5855    0.0000 O   0  0  0  0  0  0  0  0  0  0  0  0
    0.0000    3.3000    0.0000 C   0  0  0  0  0  0  0  0  0  0  0  0
    0.8250    3.3000    0.0000 C   0  0  0  0  0  0  0  0  0  0  0  0
    0.0000    2.4750    0.0000 N   0  0  0  0  0  0  0  0  0  0  0  0
    0.7145    2.0625    0.0000 C   0  0  0  0  0  0  0  0  0  0  0  0
    1.4289    2.4750    0.0000 O   0  0  0  0  0  0  0  0  0  0  0  0
    0.7145    1.2375    0.0000 C   0  0  0  0  0  0  0  0  0  0  0  0
    1.4289    0.8250    0.0000 C   0  0  0  0  0  0  0  0  0  0  0  0
    1.4289   -0.0000    0.0000 C   0  0  0  0  0  0  0  0  0  0  0  0
    2.1434   -0.4125    0.0000 C   0  0  0  0  0  0  0  0  0  0  0  0
    2.8579   -0.0000    0.0000 O   0  0  0  0  0  0  0  0  0  0  0  0
    0.7145   -0.4125    0.0000 N   0  0  0  0  0  0  0  0  0  0  0  0
    0.0000    0.0000    0.0000 C   0  0  0  0  0  0  0  0  0  0  0  0
    0.0000    0.8250    0.0000 C   0  0  0  0  0  0  0  0  0  0  0  0
    0.0000    4.1250    0.0000 C   0  0  0  0  0  0  0  0  0  0  0  0
    0.0000    4.9500    0.0000 F   0  0  0  0  0  0  0  0  0  0  0  0
    0.8250    4.1250    0.0000 F   0  0  0  0  0  0  0  0  0  0  0  0
   -0.8250    4.1250    0.0000 F   0  0  0  0  0  0  0  0  0  0  0  0
  1  2  1  0  0  0  0
  2  3  1  0  0  0  0
  3  4  2  0  0  0  0
  3  5  1  0  0  0  0
  5  6  1  0  0  0  0
  5  7  1  0  0  0  0
  7  8  1  0  0  0  0
  8  9  2  0  0  0  0
  8 10  1  0  0  0  0
 10 11  2  0  0  0  0
 11 12  1  0  0  0  0
 12 13  1  0  0  0  0
 13 14  1  0  0  0  0
 12 15  2  0  0  0  0
 15 16  1  0  0  0  0
 16 17  2  0  0  0  0
 10 17  1  0  0  0  0
  5 18  1  0  0  0  0
 18 19  1  0  0  0  0
 18 20  1  0  0  0  0
 18 21  1  0  0  0  0
M  END
> <ID>
CPD_1417

$$$$
CPD_1422
  Mrv1822 09091914012D          

 17 16  0  0  0  0            999 V2000
   -2.8875   -0.1105    0.0000 C   0  0  0  0  0  0  0  0  0  0  0  0
   -2.4750   -0.8250    0.0000 C   0  0  0  0  0  0  0  0  0  0  0  0
   -1.6500   -0.8250    0.0000 C   0  0  0  0  0  0  0  0  0  0  0  0
   -1.2375   -1.5395    0.0000 C   0  0  0  0  0  0  0  0  0  0  0  0
   -0.4125   -1.5395    0.0000 C   0  0  0  0  0  0  0  0  0  0  0  0
    0.0000   -2.2539    0.0000 O   0  0  0  0  0  0  0  0  0  0  0  0
    0.0000   -0.8250    0.0000 N   0  0  0  0  0  0  0  0  0  0  0  0
    0.8250   -0.8250    0.0000 C   0  0  0  0  0  0  0  0  0  0  0  0
    0.8250   -1.6500    0.0000 C   0  0  0  0  0  0  0  0  0  0  0  0
    1.6500   -0.8250    0.0000 C   0  0  0  0  0  0  0  0  0  0  0  0
    2.0625   -0.1105    0.0000 O   0  0  0  0  0  0  0  0  0  0  0  0
    2.0625   -1.5395    0.0000 O   0  0  0  0  0  0  0  0  0  0  0  0
    2.8875   -1.5395    0.0000 C   0  0  0  0  0  0  0  0  0  0  0  0
    0.8250    0.0000    0.0000 C   0  0  0  0  0  0  0  0  0  0  0  0
    0.8250    0.8250    0.0000 F   0  0  0  0  0  0  0  0  0  0  0  0
    1.6500    0.0000    0.0000 F   0  0  0  0  0  0  0  0  0  0  0  0
    0.0000    0.0000    0.0000 F   0  0  0  0  0  0  0  0  0  0  0  0
  1  2  1  0  0  0  0
  2  3  1  0  0  0  0
  3  4  1  0  0  0  0
  4  5  1  0  0  0  0
  5  6  2  0  0  0  0
  5  7  1  0  0  0  0
  7  8  1  0  0  0  0
  8  9  1  0  0  0  0
  8 10  1  0  0  0  0
 10 11  2  0  0  0  0
 10 12  1  0  0  0  0
 12 13  1  0  0  0  0
  8 14  1  0  0  0  0
 14 15  1  0  0  0  0
 14 16  1  0  0  0  0
 14 17  1  0  0  0  0
M  END
> <ID>
CPD_1422

$$$$
CPD_1427
  Mrv1822 09091914012D          

 37 41  0  0  1  0            999 V2000
    4.7128   -2.7209    0.0000 H   0  0  0  0  0  0  0  0  0  0  0  0
    4.7128   -1.8959    0.0000 C   0  0  2  0  0  0  0  0  0  0  0  0
    4.5753   -1.3459    0.0000 C   0  0  0  0  0  0  0  0  0  0  0  0
    4.5753   -0.7959    0.0000 C   0  0  0  0  0  0  0  0  0  0  0  0
    4.7128   -0.2459    0.0000 N   0  0  0  0  0  0  0  0  0  0  0  0
    3.9983   -0.6584    0.0000 C   0  0  0  0  0  0  0  0  0  0  0  0
    3.9983   -1.4834    0.0000 C   0  0  1  0  0  0  0  0  0  0  0  0
    3.2839   -1.8959    0.0000 C   0  0  0  0  0  0  0  0  0  0  0  0
    2.5694   -1.4834    0.0000 C   0  0  0  0  0  0  0  0  0  0  0  0
    5.4273   -0.6584    0.0000 C   0  0  2  0  0  0  0  0  0  0  0  0
    6.1418   -1.0709    0.0000 H   0  0  0  0  0  0  0  0  0  0  0  0
    5.4273   -1.4834    0.0000 C   0  0  0  0  0  0  0  0  0  0  0  0
    6.1418   -0.2459    0.0000 C   0  0  2  0  0  0  0  0  0  0  0  0
    6.8562   -0.6584    0.0000 N   0  0  0  0  0  0  0  0  0  0  0  0
    6.8562   -1.4834    0.0000 C   0  0  0  0  0  0  0  0  0  0  0  0
    6.1418   -1.8959    0.0000 O   0  0  0  0  0  0  0  0  0  0  0  0
    7.5707   -1.8959    0.0000 C   0  0  0  0  0  0  0  0  0  0  0  0
    8.2852   -1.4834    0.0000 C   0  0  0  0  0  0  0  0  0  0  0  0
    8.9996   -1.8959    0.0000 C   0  0  0  0  0  0  0  0  0  0  0  0
    8.9996   -2.7209    0.0000 C   0  0  0  0  0  0  0  0  0  0  0  0
    8.2852   -3.1334    0.0000 C   0  0  0  0  0  0  0  0  0  0  0  0
    7.5707   -2.7209    0.0000 C   0  0  0  0  0  0  0  0  0  0  0  0
    9.7141   -3.1334    0.0000 N   0  0  0  0  0  0  0  0  0  0  0  0
   10.4286   -2.7209    0.0000 C   0  0  0  0  0  0  0  0  0  0  0  0
    9.7141   -3.9584    0.0000 C   0  0  0  0  0  0  0  0  0  0  0  0
    6.1418    0.5791    0.0000 C   0  0  0  0  0  0  0  0  0  0  0  0
    5.4273    0.9916    0.0000 C   0  0  0  0  0  0  0  0  0  0  0  0
    5.4273    1.8166    0.0000 C   0  0  0  0  0  0  0  0  0  0  0  0
    6.1418    2.2291    0.0000 N   0  0  0  0  0  0  0  0  0  0  0  0
    6.8562    1.8166    0.0000 C   0  0  0  0  0  0  0  0  0  0  0  0
    7.5707    2.2291    0.0000 C   0  0  0  0  0  0  0  0  0  0  0  0
    8.2852    1.8166    0.0000 C   0  0  0  0  0  0  0  0  0  0  0  0
    8.2852    0.9916    0.0000 C   0  0  0  0  0  0  0  0  0  0  0  0
    8.9996    0.5791    0.0000 O   0  0  0  0  0  0  0  0  0  0  0  0
    8.9996   -0.2459    0.0000 C   0  0  0  0  0  0  0  0  0  0  0  0
    7.5707    0.5791    0.0000 C   0  0  0  0  0  0  0  0  0  0  0  0
    6.8562    0.9916    0.0000 C   0  0  0  0  0  0  0  0  0  0  0  0
  2  1  1  6  0  0  0
  2  3  1  0  0  0  0
  3  4  1  0  0  0  0
  4  5  1  0  0  0  0
  5  6  1  0  0  0  0
  7  6  1  0  0  0  0
  2  7  1  0  0  0  0
  7  8  1  6  0  0  0
  8  9  1  0  0  0  0
 10  5  1  0  0  0  0
 10 11  1  6  0  0  0
 10 12  1  0  0  0  0
  2 12  1  0  0  0  0
 10 13  1  0  0  0  0
 13 14  1  1  0  0  0
 14 15  1  0  0  0  0
 15 16  2  0  0  0  0
 15 17  1  0  0  0  0
 17 18  2  0  0  0  0
 18 19  1  0  0  0  0
 19 20  2  0  0  0  0
 20 21  1  0  0  0  0
 21 22  2  0  0  0  0
 17 22  1  0  0  0  0
 20 23  1  0  0  0  0
 23 24  1  0  0  0  0
 23 25  1  0  0  0  0
 13 26  1  0  0  0  0
 26 27  2  0  0  0  0
 27 28  1  0  0  0  0
 28 29  2  0  0  0  0
 29 30  1  0  0  0  0
 30 31  2  0  0  0  0
 31 32  1  0  0  0  0
 32 33  2  0  0  0  0
 33 34  1  0  0  0  0
 34 35  1  0  0  0  0
 33 36  1  0  0  0  0
 36 37  2  0  0  0  0
 26 37  1  0  0  0  0
 30 37  1  0  0  0  0
M  END
> <ID>
CPD_1427

$$$$
CPD_1432
  Mrv1822 09091914012D          

 37 41  0  0  1  0            999 V2000
    3.9983    0.6584    0.0000 H   0  0  0  0  0  0  0  0  0  0  0  0
    3.2839    1.0709    0.0000 C   0  0  2  0  0  0  0  0  0  0  0  0
    3.1464    1.6209    0.0000 C   0  0  0  0  0  0  0  0  0  0  0  0
    3.1464    2.1709    0.0000 C   0  0  0  0  0  0  0  0  0  0  0  0
    3.2839    2.7209    0.0000 N   0  0  0  0  0  0  0  0  0  0  0  0
    2.5694    2.3084    0.0000 C   0  0  0  0  0  0  0  0  0  0  0  0
    2.5694    1.4834    0.0000 C   0  0  1  0  0  0  0  0  0  0  0  0
    1.8549    1.0709    0.0000 C   0  0  0  0  0  0  0  0  0  0  0  0
    1.8549    0.2459    0.0000 C   0  0  0  0  0  0  0  0  0  0  0  0
    3.9983    2.3084    0.0000 C   0  0  2  0  0  0  0  0  0  0  0  0
    4.7128    1.8959    0.0000 H   0  0  0  0  0  0  0  0  0  0  0  0
    3.9983    1.4834    0.0000 C   0  0  0  0  0  0  0  0  0  0  0  0
    4.7128    2.7209    0.0000 C   0  0  2  0  0  0  0  0  0  0  0  0
    4.7128    3.5459    0.0000 N   0  0  0  0  0  0  0  0  0  0  0  0
    3.9983    3.9584    0.0000 C   0  0  0  0  0  0  0  0  0  0  0  0
    3.2839    3.5459    0.0000 O   0  0  0  0  0  0  0  0  0  0  0  0
    3.9983    4.7834    0.0000 C   0  0  0  0  0  0  0  0  0  0  0  0
    3.2839    5.1959    0.0000 C   0  0  0  0  0  0  0  0  0  0  0  0
    2.5694    4.7834    0.0000 O   0  0  0  0  0  0  0  0  0  0  0  0
    3.2839    6.0209    0.0000 C   0  0  0  0  0  0  0  0  0  0  0  0
    2.5694    6.4334    0.0000 C   0  0  0  0  0  0  0  0  0  0  0  0
    2.5694    7.2584    0.0000 C   0  0  0  0  0  0  0  0  0  0  0  0
    3.2839    7.6709    0.0000 C   0  0  0  0  0  0  0  0  0  0  0  0
    3.9983    7.2584    0.0000 C   0  0  0  0  0  0  0  0  0  0  0  0
    3.9983    6.4334    0.0000 C   0  0  0  0  0  0  0  0  0  0  0  0
    5.4273    2.3084    0.0000 C   0  0  0  0  0  0  0  0  0  0  0  0
    6.1418    2.7209    0.0000 C   0  0  0  0  0  0  0  0  0  0  0  0
    6.8562    2.3084    0.0000 C   0  0  0  0  0  0  0  0  0  0  0  0
    6.8562    1.4834    0.0000 N   0  0  0  0  0  0  0  0  0  0  0  0
    6.1418    1.0709    0.0000 C   0  0  0  0  0  0  0  0  0  0  0  0
    6.1418    0.2459    0.0000 C   0  0  0  0  0  0  0  0  0  0  0  0
    5.4273   -0.1666    0.0000 C   0  0  0  0  0  0  0  0  0  0  0  0
    4.7128    0.2459    0.0000 C   0  0  0  0  0  0  0  0  0  0  0  0
    3.9983   -0.1666    0.0000 O   0  0  0  0  0  0  0  0  0  0  0  0
    3.2839    0.2459    0.0000 C   0  0  0  0  0  0  0  0  0  0  0  0
    4.7128    1.0709    0.0000 C   0  0  0  0  0  0  0  0  0  0  0  0
    5.4273    1.4834    0.0000 C   0  0  0  0  0  0  0  0  0  0  0  0
  2  1  1  6  0  0  0
  2  3  1  0  0  0  0
  3  4  1  0  0  0  0
  4  5  1  0  0  0  0
  5  6  1  0  0  0  0
  7  6  1  0  0  0  0
  2  7  1  0  0  0  0
  7  8  1  6  0  0  0
  8  9  1  0  0  0  0
 10  5  1  0  0  0  0
 10 11  1  6  0  0  0
 10 12  1  0  0  0  0
  2 12  1  0  0  0  0
 10 13  1  0  0  0  0
 13 14  1  6  0  0  0
 14 15  1  0  0  0  0
 15 16  2  0  0  0  0
 15 17  1  0  0  0  0
 17 18  1  0  0  0  0
 18 19  1  0  0  0  0
 18 20  1  0  0  0  0
 20 21  2  0  0  0  0
 21 22  1  0  0  0  0
 22 23  2  0  0  0  0
 23 24  1  0  0  0  0
 24 25  2  0  0  0  0
 20 25  1  0  0  0  0
 13 26  1  0  0  0  0
 26 27  2  0  0  0  0
 27 28  1  0  0  0  0
 28 29  2  0  0  0  0
 29 30  1  0  0  0  0
 30 31  2  0  0  0  0
 31 32  1  0  0  0  0
 32 33  2  0  0  0  0
 33 34  1  0  0  0  0
 34 35  1  0  0  0  0
 33 36  1  0  0  0  0
 36 37  2  0  0  0  0
 26 37  1  0  0  0  0
 30 37  1  0  0  0  0
M  END
> <ID>
CPD_1432

$$$$
CPD_1437
  Mrv1822 09091914012D          

 32 36  0  0  0  0            999 V2000
    4.2868   -7.4250    0.0000 C   0  0  0  0  0  0  0  0  0  0  0  0
    4.2868   -6.6000    0.0000 N   0  0  0  0  0  0  0  0  0  0  0  0
    3.5724   -6.1875    0.0000 C   0  0  0  0  0  0  0  0  0  0  0  0
    3.5724   -5.3625    0.0000 C   0  0  0  0  0  0  0  0  0  0  0  0
    4.2868   -4.9500    0.0000 N   0  0  0  0  0  0  0  0  0  0  0  0
    4.2868   -4.1250    0.0000 C   0  0  0  0  0  0  0  0  0  0  0  0
    3.5724   -3.7125    0.0000 C   0  0  0  0  0  0  0  0  0  0  0  0
    2.8579   -4.1250    0.0000 C   0  0  0  0  0  0  0  0  0  0  0  0
    2.1434   -3.7125    0.0000 C   0  0  0  0  0  0  0  0  0  0  0  0
    2.1434   -2.8875    0.0000 C   0  0  0  0  0  0  0  0  0  0  0  0
    2.8579   -2.4750    0.0000 N   0  0  0  0  0  0  0  0  0  0  0  0
    3.5724   -2.8875    0.0000 C   0  0  0  0  0  0  0  0  0  0  0  0
    2.8579   -1.6500    0.0000 C   0  0  0  0  0  0  0  0  0  0  0  0
    3.5724   -1.2375    0.0000 O   0  0  0  0  0  0  0  0  0  0  0  0
    2.1434   -1.2375    0.0000 C   0  0  0  0  0  0  0  0  0  0  0  0
    2.1434   -0.4125    0.0000 C   0  0  0  0  0  0  0  0  0  0  0  0
    2.8579   -0.0000    0.0000 C   0  0  0  0  0  0  0  0  0  0  0  0
    2.8579    0.8250    0.0000 C   0  0  0  0  0  0  0  0  0  0  0  0
    2.1434    1.2375    0.0000 S   0  0  0  0  0  0  0  0  0  0  0  0
    1.4289    0.8250    0.0000 C   0  0  0  0  0  0  0  0  0  0  0  0
    1.4289    0.0000    0.0000 C   0  0  0  0  0  0  0  0  0  0  0  0
    0.7145   -0.4125    0.0000 C   0  0  0  0  0  0  0  0  0  0  0  0
    0.0000    0.0000    0.0000 C   0  0  0  0  0  0  0  0  0  0  0  0
   -0.7145   -0.4125    0.0000 Cl  0  0  0  0  0  0  0  0  0  0  0  0
    0.0000    0.8250    0.0000 C   0  0  0  0  0  0  0  0  0  0  0  0
    0.7145    1.2375    0.0000 C   0  0  0  0  0  0  0  0  0  0  0  0
    3.5724    1.2375    0.0000 C   0  0  0  0  0  0  0  0  0  0  0  0
    4.2868    0.8250    0.0000 C   0  0  0  0  0  0  0  0  0  0  0  0
    4.2868    0.0000    0.0000 C   0  0  0  0  0  0  0  0  0  0  0  0
    3.5724   -0.4125    0.0000 C   0  0  0  0  0  0  0  0  0  0  0  0
    5.0013   -5.3625    0.0000 C   0  0  0  0  0  0  0  0  0  0  0  0
    5.0013   -6.1875    0.0000 C   0  0  0  0  0  0  0  0  0  0  0  0
  1  2  1  0  0  0  0
  2  3  1  0  0  0  0
  3  4  1  0  0  0  0
  4  5  1  0  0  0  0
  5  6  1  0  0  0  0
  6  7  1  0  0  0  0
  7  8  1  0  0  0  0
  8  9  1  0  0  0  0
  9 10  1  0  0  0  0
 10 11  1  0  0  0  0
 11 12  1  0  0  0  0
  7 12  1  0  0  0  0
 11 13  1  0  0  0  0
 13 14  2  0  0  0  0
 13 15  1  0  0  0  0
 15 16  1  0  0  0  0
 16 17  1  0  0  0  0
 17 18  2  0  0  0  0
 18 19  1  0  0  0  0
 19 20  1  0  0  0  0
 20 21  2  0  0  0  0
 16 21  1  0  0  0  0
 21 22  1  0  0  0  0
 22 23  2  0  0  0  0
 23 24  1  0  0  0  0
 23 25  1  0  0  0  0
 25 26  2  0  0  0  0
 20 26  1  0  0  0  0
 18 27  1  0  0  0  0
 27 28  2  0  0  0  0
 28 29  1  0  0  0  0
 29 30  2  0  0  0  0
 17 30  1  0  0  0  0
  5 31  1  0  0  0  0
 31 32  1  0  0  0  0
  2 32  1  0  0  0  0
M  END
> <ID>
CPD_1437

$$$$
CPD_1442
  Mrv1822 09091914012D          

 31 34  0  0  0  0            999 V2000
    6.4302    1.2375    0.0000 C   0  0  0  0  0  0  0  0  0  0  0  0
    7.1447    0.8250    0.0000 O   0  0  0  0  0  0  0  0  0  0  0  0
    7.1447    0.0000    0.0000 C   0  0  0  0  0  0  0  0  0  0  0  0
    7.8592   -0.4125    0.0000 C   0  0  0  0  0  0  0  0  0  0  0  0
    7.8592   -1.2375    0.0000 C   0  0  0  0  0  0  0  0  0  0  0  0
    7.1447   -1.6500    0.0000 C   0  0  0  0  0  0  0  0  0  0  0  0
    6.4302   -1.2375    0.0000 C   0  0  0  0  0  0  0  0  0  0  0  0
    6.4302   -0.4125    0.0000 C   0  0  0  0  0  0  0  0  0  0  0  0
    5.7158    0.0000    0.0000 Br  0  0  0  0  0  0  0  0  0  0  0  0
    8.5737   -1.6500    0.0000 C   0  0  0  0  0  0  0  0  0  0  0  0
    9.2881   -1.2375    0.0000 C   0  0  0  0  0  0  0  0  0  0  0  0
   10.0026   -1.6500    0.0000 C   0  0  0  0  0  0  0  0  0  0  0  0
   10.0026   -2.4750    0.0000 C   0  0  0  0  0  0  0  0  0  0  0  0
    9.2881   -2.8875    0.0000 C   0  0  0  0  0  0  0  0  0  0  0  0
    8.5737   -2.4750    0.0000 C   0  0  0  0  0  0  0  0  0  0  0  0
    9.2881   -3.7125    0.0000 C   0  0  0  0  0  0  0  0  0  0  0  0
    8.5737   -4.1250    0.0000 O   0  0  0  0  0  0  0  0  0  0  0  0
   10.0026   -4.1250    0.0000 N   0  0  0  0  0  0  0  0  0  0  0  0
   10.7171   -3.7125    0.0000 C   0  0  0  0  0  0  0  0  0  0  0  0
   11.4315   -4.1250    0.0000 C   0  0  0  0  0  0  0  0  0  0  0  0
   11.4315   -4.9500    0.0000 C   0  0  0  0  0  0  0  0  0  0  0  0
   10.7171   -5.3625    0.0000 C   0  0  0  0  0  0  0  0  0  0  0  0
   10.7171   -6.1875    0.0000 C   0  0  0  0  0  0  0  0  0  0  0  0
   10.0026   -6.6000    0.0000 N   0  0  0  0  0  0  0  0  0  0  0  0
   10.0026   -7.4250    0.0000 C   0  0  0  0  0  0  0  0  0  0  0  0
    9.2881   -7.8375    0.0000 C   0  0  0  0  0  0  0  0  0  0  0  0
    8.5737   -7.4250    0.0000 N   0  0  0  0  0  0  0  0  0  0  0  0
    7.8592   -7.8375    0.0000 C   0  0  0  0  0  0  0  0  0  0  0  0
    8.5737   -6.6000    0.0000 C   0  0  0  0  0  0  0  0  0  0  0  0
    9.2881   -6.1875    0.0000 C   0  0  0  0  0  0  0  0  0  0  0  0
   10.0026   -4.9500    0.0000 C   0  0  0  0  0  0  0  0  0  0  0  0
  1  2  1  0  0  0  0
  2  3  1  0  0  0  0
  3  4  2  0  0  0  0
  4  5  1  0  0  0  0
  5  6  2  0  0  0  0
  6  7  1  0  0  0  0
  7  8  2  0  0  0  0
  3  8  1  0  0  0  0
  8  9  1  0  0  0  0
  5 10  1  0  0  0  0
 10 11  2  0  0  0  0
 11 12  1  0  0  0  0
 12 13  2  0  0  0  0
 13 14  1  0  0  0  0
 14 15  2  0  0  0  0
 10 15  1  0  0  0  0
 14 16  1  0  0  0  0
 16 17  2  0  0  0  0
 16 18  1  0  0  0  0
 18 19  1  0  0  0  0
 19 20  1  0  0  0  0
 20 21  1  0  0  0  0
 21 22  1  0  0  0  0
 22 23  1  0  0  0  0
 23 24  1  0  0  0  0
 24 25  1  0  0  0  0
 25 26  1  0  0  0  0
 26 27  1  0  0  0  0
 27 28  1  0  0  0  0
 27 29  1  0  0  0  0
 29 30  1  0  0  0  0
 24 30  1  0  0  0  0
 22 31  1  0  0  0  0
 18 31  1  0  0  0  0
M  END
> <ID>
CPD_1442

$$$$
CPD_1447
  Mrv1822 09091914012D          

 25 26  0  0  0  0            999 V2000
    1.3222   -0.0616    0.0000 C   0  0  0  0  0  0  0  0  0  0  0  0
    1.3222    0.7634    0.0000 O   0  0  0  0  0  0  0  0  0  0  0  0
    2.0367    1.1759    0.0000 C   0  0  0  0  0  0  0  0  0  0  0  0
    2.0367    2.0009    0.0000 C   0  0  0  0  0  0  0  0  0  0  0  0
    2.7512    2.4134    0.0000 C   0  0  0  0  0  0  0  0  0  0  0  0
    3.4656    2.0009    0.0000 C   0  0  0  0  0  0  0  0  0  0  0  0
    3.4656    1.1759    0.0000 C   0  0  0  0  0  0  0  0  0  0  0  0
    2.7512    0.7634    0.0000 C   0  0  0  0  0  0  0  0  0  0  0  0
    2.7512   -0.0616    0.0000 N   0  0  0  0  0  0  0  0  0  0  0  0
    3.4186   -0.5465    0.0000 C   0  0  0  0  0  0  0  0  0  0  0  0
    3.1637   -1.3312    0.0000 N   0  0  0  0  0  0  0  0  0  0  0  0
    2.3387   -1.3312    0.0000 C   0  0  0  0  0  0  0  0  0  0  0  0
    1.8538   -1.9986    0.0000 C   0  0  0  0  0  0  0  0  0  0  0  0
    2.0837   -0.5465    0.0000 C   0  0  0  0  0  0  0  0  0  0  0  0
    2.7512    3.2384    0.0000 C   0  0  0  0  0  0  0  0  0  0  0  0
    2.0367    3.6509    0.0000 O   0  0  0  0  0  0  0  0  0  0  0  0
    3.4656    3.6509    0.0000 N   0  0  0  0  0  0  0  0  0  0  0  0
    4.1801    3.2384    0.0000 C   0  0  0  0  0  0  0  0  0  0  0  0
    3.4656    4.4759    0.0000 C   0  0  0  0  0  0  0  0  0  0  0  0
    4.1801    4.8884    0.0000 C   0  0  0  0  0  0  0  0  0  0  0  0
    4.5926    4.1739    0.0000 F   0  0  0  0  0  0  0  0  0  0  0  0
    3.7676    5.6029    0.0000 F   0  0  0  0  0  0  0  0  0  0  0  0
    4.8946    5.3009    0.0000 C   0  0  0  0  0  0  0  0  0  0  0  0
    4.8946    6.1259    0.0000 O   0  0  0  0  0  0  0  0  0  0  0  0
    5.6091    4.8884    0.0000 O   0  0  0  0  0  0  0  0  0  0  0  0
  1  2  1  0  0  0  0
  2  3  1  0  0  0  0
  3  4  2  0  0  0  0
  4  5  1  0  0  0  0
  5  6  2  0  0  0  0
  6  7  1  0  0  0  0
  7  8  2  0  0  0  0
  3  8  1  0  0  0  0
  8  9  1  0  0  0  0
  9 10  1  0  0  0  0
 10 11  2  0  0  0  0
 11 12  1  0  0  0  0
 12 13  1  0  0  0  0
 12 14  2  0  0  0  0
  9 14  1  0  0  0  0
  5 15  1  0  0  0  0
 15 16  2  0  0  0  0
 15 17  1  0  0  0  0
 17 18  1  0  0  0  0
 17 19  1  0  0  0  0
 19 20  1  0  0  0  0
 20 21  1  0  0  0  0
 20 22  1  0  0  0  0
 20 23  1  0  0  0  0
 23 24  1  0  0  0  0
 23 25  2  0  0  0  0
M  END
> <ID>
CPD_1447

$$$$
CPD_1452
  Mrv1822 09091914012D          

 30 32  0  0  0  0            999 V2000
   -2.6909   -2.8414    0.0000 C   0  0  0  0  0  0  0  0  0  0  0  0
   -3.1034   -2.1269    0.0000 N   0  0  0  0  0  0  0  0  0  0  0  0
   -3.9284   -2.1269    0.0000 C   0  0  0  0  0  0  0  0  0  0  0  0
   -4.3409   -2.8414    0.0000 C   0  0  0  0  0  0  0  0  0  0  0  0
   -3.6265   -3.2539    0.0000 F   0  0  0  0  0  0  0  0  0  0  0  0
   -5.0554   -2.4289    0.0000 F   0  0  0  0  0  0  0  0  0  0  0  0
   -4.7534   -3.5558    0.0000 C   0  0  0  0  0  0  0  0  0  0  0  0
   -5.5784   -3.5558    0.0000 O   0  0  0  0  0  0  0  0  0  0  0  0
   -4.3409   -4.2703    0.0000 O   0  0  0  0  0  0  0  0  0  0  0  0
   -2.6909   -1.4124    0.0000 C   0  0  0  0  0  0  0  0  0  0  0  0
   -3.1034   -0.6979    0.0000 O   0  0  0  0  0  0  0  0  0  0  0  0
   -1.8659   -1.4124    0.0000 C   0  0  0  0  0  0  0  0  0  0  0  0
   -1.4534   -0.6979    0.0000 C   0  0  0  0  0  0  0  0  0  0  0  0
   -0.6284   -0.6979    0.0000 N   0  0  0  0  0  0  0  0  0  0  0  0
   -0.1435   -1.3654    0.0000 C   0  0  0  0  0  0  0  0  0  0  0  0
    0.6411   -1.1104    0.0000 C   0  0  0  0  0  0  0  0  0  0  0  0
    0.6411   -0.2854    0.0000 C   0  0  0  0  0  0  0  0  0  0  0  0
    1.3556    0.1271    0.0000 C   0  0  0  0  0  0  0  0  0  0  0  0
    2.0701   -0.2854    0.0000 C   0  0  0  0  0  0  0  0  0  0  0  0
    2.0701   -1.1104    0.0000 C   0  0  0  0  0  0  0  0  0  0  0  0
    1.3556   -1.5229    0.0000 C   0  0  0  0  0  0  0  0  0  0  0  0
   -0.1435   -0.0305    0.0000 C   0  0  0  0  0  0  0  0  0  0  0  0
   -0.3984    0.7541    0.0000 O   0  0  0  0  0  0  0  0  0  0  0  0
   -1.8659    0.0165    0.0000 C   0  0  0  0  0  0  0  0  0  0  0  0
   -2.6909    0.0165    0.0000 C   0  0  0  0  0  0  0  0  0  0  0  0
   -3.1034    0.7310    0.0000 C   0  0  0  0  0  0  0  0  0  0  0  0
   -2.6909    1.4455    0.0000 C   0  0  0  0  0  0  0  0  0  0  0  0
   -3.1034    2.1599    0.0000 O   0  0  0  0  0  0  0  0  0  0  0  0
   -1.8659    1.4455    0.0000 C   0  0  0  0  0  0  0  0  0  0  0  0
   -1.4534    0.7310    0.0000 C   0  0  0  0  0  0  0  0  0  0  0  0
  1  2  1  0  0  0  0
  2  3  1  0  0  0  0
  3  4  1  0  0  0  0
  4  5  1  0  0  0  0
  4  6  1  0  0  0  0
  4  7  1  0  0  0  0
  7  8  1  0  0  0  0
  7  9  2  0  0  0  0
  2 10  1  0  0  0  0
 10 11  2  0  0  0  0
 10 12  1  0  0  0  0
 12 13  1  0  0  0  0
 13 14  1  0  0  0  0
 14 15  1  0  0  0  0
 15 16  1  0  0  0  0
 16 17  2  0  0  0  0
 17 18  1  0  0  0  0
 18 19  2  0  0  0  0
 19 20  1  0  0  0  0
 20 21  2  0  0  0  0
 16 21  1  0  0  0  0
 17 22  1  0  0  0  0
 14 22  1  0  0  0  0
 22 23  2  0  0  0  0
 13 24  1  0  0  0  0
 24 25  2  0  0  0  0
 25 26  1  0  0  0  0
 26 27  2  0  0  0  0
 27 28  1  0  0  0  0
 27 29  1  0  0  0  0
 29 30  2  0  0  0  0
 24 30  1  0  0  0  0
M  END
> <ID>
CPD_1452

$$$$
CPD_1457
  Mrv1822 09091914012D          

 20 21  0  0  0  0            999 V2000
   -0.1712   -2.1269    0.0000 C   0  0  0  0  0  0  0  0  0  0  0  0
   -0.5837   -1.4124    0.0000 N   0  0  0  0  0  0  0  0  0  0  0  0
   -1.4087   -1.4124    0.0000 C   0  0  0  0  0  0  0  0  0  0  0  0
   -1.8212   -2.1269    0.0000 C   0  0  0  0  0  0  0  0  0  0  0  0
   -1.1067   -2.5394    0.0000 F   0  0  0  0  0  0  0  0  0  0  0  0
   -2.5357   -1.7144    0.0000 F   0  0  0  0  0  0  0  0  0  0  0  0
   -2.2337   -2.8414    0.0000 C   0  0  0  0  0  0  0  0  0  0  0  0
   -3.0587   -2.8414    0.0000 O   0  0  0  0  0  0  0  0  0  0  0  0
   -1.8212   -3.5558    0.0000 O   0  0  0  0  0  0  0  0  0  0  0  0
   -0.1712   -0.6979    0.0000 C   0  0  0  0  0  0  0  0  0  0  0  0
   -0.5837    0.0165    0.0000 O   0  0  0  0  0  0  0  0  0  0  0  0
    0.6538   -0.6979    0.0000 C   0  0  0  0  0  0  0  0  0  0  0  0
    1.1387   -0.0305    0.0000 C   0  0  0  0  0  0  0  0  0  0  0  0
    1.9233   -0.2854    0.0000 N   0  0  0  0  0  0  0  0  0  0  0  0
    2.6378    0.1271    0.0000 C   0  0  0  0  0  0  0  0  0  0  0  0
    3.3523   -0.2854    0.0000 C   0  0  0  0  0  0  0  0  0  0  0  0
    3.3523   -1.1104    0.0000 C   0  0  0  0  0  0  0  0  0  0  0  0
    2.6378   -1.5229    0.0000 C   0  0  0  0  0  0  0  0  0  0  0  0
    1.9233   -1.1104    0.0000 C   0  0  0  0  0  0  0  0  0  0  0  0
    1.1387   -1.3654    0.0000 N   0  0  0  0  0  0  0  0  0  0  0  0
  1  2  1  0  0  0  0
  2  3  1  0  0  0  0
  3  4  1  0  0  0  0
  4  5  1  0  0  0  0
  4  6  1  0  0  0  0
  4  7  1  0  0  0  0
  7  8  1  0  0  0  0
  7  9  2  0  0  0  0
  2 10  1  0  0  0  0
 10 11  2  0  0  0  0
 10 12  1  0  0  0  0
 12 13  2  0  0  0  0
 13 14  1  0  0  0  0
 14 15  1  0  0  0  0
 15 16  2  0  0  0  0
 16 17  1  0  0  0  0
 17 18  2  0  0  0  0
 18 19  1  0  0  0  0
 14 19  1  0  0  0  0
 19 20  2  0  0  0  0
 12 20  1  0  0  0  0
M  END
> <ID>
CPD_1457

$$$$
CPD_1462
  Mrv1822 09091914012D          

 32 34  0  0  0  0            999 V2000
    6.2102    1.9354    0.0000 C   0  0  0  0  0  0  0  0  0  0  0  0
    5.4957    1.5229    0.0000 N   0  0  0  0  0  0  0  0  0  0  0  0
    4.7812    1.9354    0.0000 S   0  0  0  0  0  0  0  0  0  0  0  0
    5.1937    2.6499    0.0000 O   0  0  0  0  0  0  0  0  0  0  0  0
    4.3687    1.2210    0.0000 O   0  0  0  0  0  0  0  0  0  0  0  0
    4.0668    2.3479    0.0000 C   0  0  0  0  0  0  0  0  0  0  0  0
    3.3523    1.9354    0.0000 C   0  0  0  0  0  0  0  0  0  0  0  0
    3.3523    1.1104    0.0000 C   0  0  0  0  0  0  0  0  0  0  0  0
    2.6378    0.6979    0.0000 C   0  0  0  0  0  0  0  0  0  0  0  0
    1.9233    1.1104    0.0000 C   0  0  0  0  0  0  0  0  0  0  0  0
    1.1387    0.8555    0.0000 N   0  0  0  0  0  0  0  0  0  0  0  0
    0.6538    1.5229    0.0000 C   0  0  0  0  0  0  0  0  0  0  0  0
    1.1387    2.1904    0.0000 C   0  0  0  0  0  0  0  0  0  0  0  0
    0.8838    2.9750    0.0000 C   0  0  0  0  0  0  0  0  0  0  0  0
    0.0768    3.1465    0.0000 O   0  0  0  0  0  0  0  0  0  0  0  0
    1.4358    3.5881    0.0000 N   0  0  0  0  0  0  0  0  0  0  0  0
    1.1809    4.3727    0.0000 C   0  0  0  0  0  0  0  0  0  0  0  0
    0.3963    4.6277    0.0000 N   0  0  0  0  0  0  0  0  0  0  0  0
    0.3963    5.4527    0.0000 N   0  0  0  0  0  0  0  0  0  0  0  0
   -0.2712    5.9376    0.0000 C   0  0  0  0  0  0  0  0  0  0  0  0
    1.1809    5.7076    0.0000 C   0  0  0  0  0  0  0  0  0  0  0  0
    1.4358    6.4922    0.0000 C   0  0  0  0  0  0  0  0  0  0  0  0
    2.2428    6.6637    0.0000 O   0  0  0  0  0  0  0  0  0  0  0  0
    2.4977    7.4484    0.0000 C   0  0  0  0  0  0  0  0  0  0  0  0
    3.3047    7.6199    0.0000 C   0  0  0  0  0  0  0  0  0  0  0  0
    3.5596    8.4045    0.0000 C   0  0  0  0  0  0  0  0  0  0  0  0
    3.8146    9.1891    0.0000 F   0  0  0  0  0  0  0  0  0  0  0  0
    4.3443    8.1496    0.0000 F   0  0  0  0  0  0  0  0  0  0  0  0
    2.7750    8.6595    0.0000 F   0  0  0  0  0  0  0  0  0  0  0  0
    1.6658    5.0402    0.0000 C   0  0  0  0  0  0  0  0  0  0  0  0
    1.9233    1.9354    0.0000 C   0  0  0  0  0  0  0  0  0  0  0  0
    2.6378    2.3479    0.0000 C   0  0  0  0  0  0  0  0  0  0  0  0
  1  2  1  0  0  0  0
  2  3  1  0  0  0  0
  3  4  2  0  0  0  0
  3  5  2  0  0  0  0
  3  6  1  0  0  0  0
  6  7  1  0  0  0  0
  7  8  2  0  0  0  0
  8  9  1  0  0  0  0
  9 10  2  0  0  0  0
 10 11  1  0  0  0  0
 11 12  1  0  0  0  0
 12 13  2  0  0  0  0
 13 14  1  0  0  0  0
 14 15  2  0  0  0  0
 14 16  1  0  0  0  0
 16 17  1  0  0  0  0
 17 18  2  0  0  0  0
 18 19  1  0  0  0  0
 19 20  1  0  0  0  0
 19 21  1  0  0  0  0
 21 22  1  0  0  0  0
 22 23  1  0  0  0  0
 23 24  1  0  0  0  0
 24 25  1  0  0  0  0
 25 26  1  0  0  0  0
 26 27  1  0  0  0  0
 26 28  1  0  0  0  0
 26 29  1  0  0  0  0
 21 30  2  0  0  0  0
 17 30  1  0  0  0  0
 13 31  1  0  0  0  0
 10 31  1  0  0  0  0
 31 32  2  0  0  0  0
  7 32  1  0  0  0  0
M  END
> <ID>
CPD_1462

$$$$
CPD_1467
  Mrv1822 09091914012D          

 29 30  0  0  0  0            999 V2000
    2.1434   -2.0625    0.0000 C   0  0  0  0  0  0  0  0  0  0  0  0
    1.4289   -2.4750    0.0000 O   0  0  0  0  0  0  0  0  0  0  0  0
    0.7145   -2.0625    0.0000 C   0  0  0  0  0  0  0  0  0  0  0  0
    0.0000   -2.4750    0.0000 C   0  0  0  0  0  0  0  0  0  0  0  0
   -0.7145   -2.0625    0.0000 C   0  0  0  0  0  0  0  0  0  0  0  0
   -1.4289   -2.4750    0.0000 F   0  0  0  0  0  0  0  0  0  0  0  0
   -0.7145   -1.2375    0.0000 C   0  0  0  0  0  0  0  0  0  0  0  0
   -1.4289   -0.8250    0.0000 F   0  0  0  0  0  0  0  0  0  0  0  0
    0.0000   -0.8250    0.0000 C   0  0  0  0  0  0  0  0  0  0  0  0
    0.7145   -1.2375    0.0000 C   0  0  0  0  0  0  0  0  0  0  0  0
    1.4289   -0.8250    0.0000 C   0  0  0  0  0  0  0  0  0  0  0  0
    2.1434   -1.2375    0.0000 C   0  0  0  0  0  0  0  0  0  0  0  0
    2.8579   -0.8250    0.0000 C   0  0  0  0  0  0  0  0  0  0  0  0
    2.8579    0.0000    0.0000 O   0  0  0  0  0  0  0  0  0  0  0  0
    3.5724   -1.2375    0.0000 N   0  0  0  0  0  0  0  0  0  0  0  0
    4.2868   -0.8250    0.0000 C   0  0  0  0  0  0  0  0  0  0  0  0
    4.3731   -0.0045    0.0000 N   0  0  0  0  0  0  0  0  0  0  0  0
    5.1800    0.1670    0.0000 N   0  0  0  0  0  0  0  0  0  0  0  0
    5.5156    0.9207    0.0000 C   0  0  0  0  0  0  0  0  0  0  0  0
    5.5925   -0.5475    0.0000 C   0  0  0  0  0  0  0  0  0  0  0  0
    6.4130   -0.6337    0.0000 C   0  0  0  0  0  0  0  0  0  0  0  0
    6.7486   -1.3874    0.0000 O   0  0  0  0  0  0  0  0  0  0  0  0
    7.5691   -1.4736    0.0000 C   0  0  0  0  0  0  0  0  0  0  0  0
    7.9046   -2.2273    0.0000 C   0  0  0  0  0  0  0  0  0  0  0  0
    8.7251   -2.3135    0.0000 C   0  0  0  0  0  0  0  0  0  0  0  0
    9.5456   -2.3998    0.0000 F   0  0  0  0  0  0  0  0  0  0  0  0
    8.6389   -3.1340    0.0000 F   0  0  0  0  0  0  0  0  0  0  0  0
    8.8113   -1.4930    0.0000 F   0  0  0  0  0  0  0  0  0  0  0  0
    5.0405   -1.1606    0.0000 C   0  0  0  0  0  0  0  0  0  0  0  0
  1  2  1  0  0  0  0
  2  3  1  0  0  0  0
  3  4  2  0  0  0  0
  4  5  1  0  0  0  0
  5  6  1  0  0  0  0
  5  7  2  0  0  0  0
  7  8  1  0  0  0  0
  7  9  1  0  0  0  0
  9 10  2  0  0  0  0
  3 10  1  0  0  0  0
 10 11  1  0  0  0  0
 11 12  1  0  0  0  0
 12 13  1  0  0  0  0
 13 14  2  0  0  0  0
 13 15  1  0  0  0  0
 15 16  1  0  0  0  0
 16 17  2  0  0  0  0
 17 18  1  0  0  0  0
 18 19  1  0  0  0  0
 18 20  1  0  0  0  0
 20 21  1  0  0  0  0
 21 22  1  0  0  0  0
 22 23  1  0  0  0  0
 23 24  1  0  0  0  0
 24 25  1  0  0  0  0
 25 26  1  0  0  0  0
 25 27  1  0  0  0  0
 25 28  1  0  0  0  0
 20 29  2  0  0  0  0
 16 29  1  0  0  0  0
M  END
> <ID>
CPD_1467

$$$$
CPD_1472
  Mrv1822 09091914012D          

 32 35  0  0  0  0            999 V2000
    7.3076   -2.3391    0.0000 C   0  0  0  0  0  0  0  0  0  0  0  0
    7.2213   -1.5186    0.0000 N   0  0  0  0  0  0  0  0  0  0  0  0
    6.5069   -1.1061    0.0000 N   0  0  0  0  0  0  0  0  0  0  0  0
    6.6784   -0.2991    0.0000 C   0  0  0  0  0  0  0  0  0  0  0  0
    6.1264    0.3140    0.0000 N   0  0  0  0  0  0  0  0  0  0  0  0
    5.3194    0.1425    0.0000 C   0  0  0  0  0  0  0  0  0  0  0  0
    5.0645   -0.6422    0.0000 O   0  0  0  0  0  0  0  0  0  0  0  0
    4.7674    0.7556    0.0000 C   0  0  0  0  0  0  0  0  0  0  0  0
    3.9604    0.5840    0.0000 C   0  0  0  0  0  0  0  0  0  0  0  0
    3.7054   -0.2006    0.0000 C   0  0  0  0  0  0  0  0  0  0  0  0
    2.8985   -0.3721    0.0000 C   0  0  0  0  0  0  0  0  0  0  0  0
    2.6435   -1.1567    0.0000 O   0  0  0  0  0  0  0  0  0  0  0  0
    2.3464    0.2410    0.0000 N   0  0  0  0  0  0  0  0  0  0  0  0
    2.6014    1.0256    0.0000 C   0  0  0  0  0  0  0  0  0  0  0  0
    3.4084    1.1971    0.0000 N   0  0  0  0  0  0  0  0  0  0  0  0
    1.9339    1.5105    0.0000 N   0  0  0  0  0  0  0  0  0  0  0  0
    1.2665    1.0256    0.0000 C   0  0  0  0  0  0  0  0  0  0  0  0
    1.5214    0.2410    0.0000 C   0  0  0  0  0  0  0  0  0  0  0  0
    0.9694   -0.3721    0.0000 C   0  0  0  0  0  0  0  0  0  0  0  0
    0.1624   -0.2006    0.0000 C   0  0  0  0  0  0  0  0  0  0  0  0
   -0.0925    0.5840    0.0000 C   0  0  0  0  0  0  0  0  0  0  0  0
    0.4595    1.1971    0.0000 C   0  0  0  0  0  0  0  0  0  0  0  0
    7.4989   -0.2129    0.0000 C   0  0  0  0  0  0  0  0  0  0  0  0
    7.8344   -0.9665    0.0000 C   0  0  0  0  0  0  0  0  0  0  0  0
    8.6414   -1.1381    0.0000 C   0  0  0  0  0  0  0  0  0  0  0  0
    8.8963   -1.9227    0.0000 O   0  0  0  0  0  0  0  0  0  0  0  0
    9.7033   -2.0942    0.0000 C   0  0  0  0  0  0  0  0  0  0  0  0
    9.9583   -2.8788    0.0000 C   0  0  0  0  0  0  0  0  0  0  0  0
   10.7652   -3.0504    0.0000 C   0  0  0  0  0  0  0  0  0  0  0  0
   11.5722   -3.2219    0.0000 F   0  0  0  0  0  0  0  0  0  0  0  0
   10.5937   -3.8573    0.0000 F   0  0  0  0  0  0  0  0  0  0  0  0
   10.9368   -2.2434    0.0000 F   0  0  0  0  0  0  0  0  0  0  0  0
  1  2  1  0  0  0  0
  2  3  1  0  0  0  0
  3  4  2  0  0  0  0
  4  5  1  0  0  0  0
  5  6  1  0  0  0  0
  6  7  2  0  0  0  0
  6  8  1  0  0  0  0
  8  9  1  0  0  0  0
  9 10  2  0  0  0  0
 10 11  1  0  0  0  0
 11 12  2  0  0  0  0
 11 13  1  0  0  0  0
 13 14  1  0  0  0  0
 14 15  1  0  0  0  0
  9 15  1  0  0  0  0
 14 16  2  0  0  0  0
 16 17  1  0  0  0  0
 17 18  2  0  0  0  0
 13 18  1  0  0  0  0
 18 19  1  0  0  0  0
 19 20  2  0  0  0  0
 20 21  1  0  0  0  0
 21 22  2  0  0  0  0
 17 22  1  0  0  0  0
  4 23  1  0  0  0  0
 23 24  2  0  0  0  0
  2 24  1  0  0  0  0
 24 25  1  0  0  0  0
 25 26  1  0  0  0  0
 26 27  1  0  0  0  0
 27 28  1  0  0  0  0
 28 29  1  0  0  0  0
 29 30  1  0  0  0  0
 29 31  1  0  0  0  0
 29 32  1  0  0  0  0
M  END
> <ID>
CPD_1472

$$$$
CPD_1477
  Mrv1822 09091914012D          

 26 27  0  0  0  0            999 V2000
    1.4289   -1.6500    0.0000 C   0  0  0  0  0  0  0  0  0  0  0  0
    1.4289   -2.4750    0.0000 N   0  0  0  0  0  0  0  0  0  0  0  0
    2.0964   -2.9599    0.0000 N   0  0  0  0  0  0  0  0  0  0  0  0
    1.8414   -3.7445    0.0000 C   0  0  0  0  0  0  0  0  0  0  0  0
    2.3264   -4.4120    0.0000 N   0  0  0  0  0  0  0  0  0  0  0  0
    3.1468   -4.3257    0.0000 C   0  0  0  0  0  0  0  0  0  0  0  0
    3.4824   -3.5721    0.0000 O   0  0  0  0  0  0  0  0  0  0  0  0
    3.6318   -4.9932    0.0000 C   0  0  0  0  0  0  0  0  0  0  0  0
    4.4522   -4.9070    0.0000 C   0  0  0  0  0  0  0  0  0  0  0  0
    4.9372   -5.5744    0.0000 C   0  0  0  0  0  0  0  0  0  0  0  0
    4.6016   -6.3281    0.0000 C   0  0  0  0  0  0  0  0  0  0  0  0
    5.0865   -6.9955    0.0000 Cl  0  0  0  0  0  0  0  0  0  0  0  0
    3.7811   -6.4143    0.0000 C   0  0  0  0  0  0  0  0  0  0  0  0
    3.2962   -5.7469    0.0000 N   0  0  0  0  0  0  0  0  0  0  0  0
    4.7878   -4.1533    0.0000 C   0  0  0  0  0  0  0  0  0  0  0  0
    5.1234   -3.3996    0.0000 N   0  0  0  0  0  0  0  0  0  0  0  0
    1.0164   -3.7445    0.0000 C   0  0  0  0  0  0  0  0  0  0  0  0
    0.7615   -2.9599    0.0000 C   0  0  0  0  0  0  0  0  0  0  0  0
   -0.0231   -2.7050    0.0000 C   0  0  0  0  0  0  0  0  0  0  0  0
   -0.1946   -1.8980    0.0000 O   0  0  0  0  0  0  0  0  0  0  0  0
   -0.9793   -1.6431    0.0000 C   0  0  0  0  0  0  0  0  0  0  0  0
   -1.1508   -0.8361    0.0000 C   0  0  0  0  0  0  0  0  0  0  0  0
   -1.9354   -0.5812    0.0000 C   0  0  0  0  0  0  0  0  0  0  0  0
   -2.7200   -0.3262    0.0000 F   0  0  0  0  0  0  0  0  0  0  0  0
   -1.6805    0.2035    0.0000 F   0  0  0  0  0  0  0  0  0  0  0  0
   -2.1904   -1.3658    0.0000 F   0  0  0  0  0  0  0  0  0  0  0  0
  1  2  1  0  0  0  0
  2  3  1  0  0  0  0
  3  4  2  0  0  0  0
  4  5  1  0  0  0  0
  5  6  1  0  0  0  0
  6  7  2  0  0  0  0
  6  8  1  0  0  0  0
  8  9  2  0  0  0  0
  9 10  1  0  0  0  0
 10 11  2  0  0  0  0
 11 12  1  0  0  0  0
 11 13  1  0  0  0  0
 13 14  2  0  0  0  0
  8 14  1  0  0  0  0
  9 15  1  0  0  0  0
 15 16  3  0  0  0  0
  4 17  1  0  0  0  0
 17 18  2  0  0  0  0
  2 18  1  0  0  0  0
 18 19  1  0  0  0  0
 19 20  1  0  0  0  0
 20 21  1  0  0  0  0
 21 22  1  0  0  0  0
 22 23  1  0  0  0  0
 23 24  1  0  0  0  0
 23 25  1  0  0  0  0
 23 26  1  0  0  0  0
M  END
> <ID>
CPD_1477

$$$$
CPD_1482
  Mrv1822 09091914012D          

 28 30  0  0  0  0            999 V2000
   -1.4593   -3.2241    0.0000 C   0  0  0  0  0  0  0  0  0  0  0  0
   -0.7448   -3.6366    0.0000 C   0  0  0  0  0  0  0  0  0  0  0  0
   -0.7448   -4.4616    0.0000 N   0  0  0  0  0  0  0  0  0  0  0  0
   -0.0774   -4.9465    0.0000 N   0  0  0  0  0  0  0  0  0  0  0  0
   -0.3323   -5.7311    0.0000 C   0  0  0  0  0  0  0  0  0  0  0  0
    0.1526   -6.3986    0.0000 N   0  0  0  0  0  0  0  0  0  0  0  0
    0.9731   -6.3123    0.0000 C   0  0  0  0  0  0  0  0  0  0  0  0
    1.3086   -5.5586    0.0000 O   0  0  0  0  0  0  0  0  0  0  0  0
    1.4580   -6.9798    0.0000 C   0  0  0  0  0  0  0  0  0  0  0  0
    2.2830   -6.9798    0.0000 C   0  0  0  0  0  0  0  0  0  0  0  0
    2.7679   -6.3123    0.0000 C   0  0  0  0  0  0  0  0  0  0  0  0
    2.4324   -5.5586    0.0000 O   0  0  0  0  0  0  0  0  0  0  0  0
    2.9173   -4.8912    0.0000 C   0  0  0  0  0  0  0  0  0  0  0  0
    2.5379   -7.7644    0.0000 N   0  0  0  0  0  0  0  0  0  0  0  0
    1.8705   -8.2493    0.0000 N   0  0  0  0  0  0  0  0  0  0  0  0
    1.2031   -7.7644    0.0000 N   0  0  0  0  0  0  0  0  0  0  0  0
    3.3226   -8.0193    0.0000 C   0  0  0  0  0  0  0  0  0  0  0  0
    3.9357   -7.4673    0.0000 C   0  0  0  0  0  0  0  0  0  0  0  0
    4.7203   -7.7222    0.0000 C   0  0  0  0  0  0  0  0  0  0  0  0
    5.3334   -7.1702    0.0000 C   0  0  0  0  0  0  0  0  0  0  0  0
    4.8918   -8.5292    0.0000 C   0  0  0  0  0  0  0  0  0  0  0  0
    4.2787   -9.0812    0.0000 C   0  0  0  0  0  0  0  0  0  0  0  0
    3.4941   -8.8263    0.0000 C   0  0  0  0  0  0  0  0  0  0  0  0
    2.8810   -9.3783    0.0000 F   0  0  0  0  0  0  0  0  0  0  0  0
   -1.1573   -5.7311    0.0000 C   0  0  0  0  0  0  0  0  0  0  0  0
   -1.4123   -4.9465    0.0000 C   0  0  0  0  0  0  0  0  0  0  0  0
   -2.1969   -4.6916    0.0000 C   0  0  0  0  0  0  0  0  0  0  0  0
   -2.3684   -3.8846    0.0000 O   0  0  0  0  0  0  0  0  0  0  0  0
  1  2  1  0  0  0  0
  2  3  1  0  0  0  0
  3  4  1  0  0  0  0
  4  5  2  0  0  0  0
  5  6  1  0  0  0  0
  6  7  1  0  0  0  0
  7  8  2  0  0  0  0
  7  9  1  0  0  0  0
  9 10  2  0  0  0  0
 10 11  1  0  0  0  0
 11 12  1  0  0  0  0
 12 13  1  0  0  0  0
 10 14  1  0  0  0  0
 14 15  1  0  0  0  0
 15 16  2  0  0  0  0
  9 16  1  0  0  0  0
 14 17  1  0  0  0  0
 17 18  2  0  0  0  0
 18 19  1  0  0  0  0
 19 20  1  0  0  0  0
 19 21  2  0  0  0  0
 21 22  1  0  0  0  0
 22 23  2  0  0  0  0
 17 23  1  0  0  0  0
 23 24  1  0  0  0  0
  5 25  1  0  0  0  0
 25 26  2  0  0  0  0
  3 26  1  0  0  0  0
 26 27  1  0  0  0  0
 27 28  1  0  0  0  0
M  END
> <ID>
CPD_1482

$$$$
CPD_1487
  Mrv1822 09091914012D          

 28 30  0  0  0  0            999 V2000
    3.4656    1.0527    0.0000 C   0  0  0  0  0  0  0  0  0  0  0  0
    4.1801    0.6402    0.0000 C   0  0  0  0  0  0  0  0  0  0  0  0
    4.1801   -0.1848    0.0000 N   0  0  0  0  0  0  0  0  0  0  0  0
    4.8476   -0.6697    0.0000 N   0  0  0  0  0  0  0  0  0  0  0  0
    4.5926   -1.4544    0.0000 C   0  0  0  0  0  0  0  0  0  0  0  0
    5.0775   -2.1218    0.0000 N   0  0  0  0  0  0  0  0  0  0  0  0
    4.7420   -2.8755    0.0000 C   0  0  0  0  0  0  0  0  0  0  0  0
    3.9215   -2.9617    0.0000 O   0  0  0  0  0  0  0  0  0  0  0  0
    5.2269   -3.5429    0.0000 C   0  0  0  0  0  0  0  0  0  0  0  0
    6.0474   -3.4567    0.0000 C   0  0  0  0  0  0  0  0  0  0  0  0
    6.3829   -2.7030    0.0000 C   0  0  0  0  0  0  0  0  0  0  0  0
    6.5323   -4.1241    0.0000 N   0  0  0  0  0  0  0  0  0  0  0  0
    6.1968   -4.8778    0.0000 C   0  0  0  0  0  0  0  0  0  0  0  0
    6.6817   -5.5452    0.0000 O   0  0  0  0  0  0  0  0  0  0  0  0
    5.3763   -4.9640    0.0000 C   0  0  0  0  0  0  0  0  0  0  0  0
    4.8914   -4.2966    0.0000 C   0  0  0  0  0  0  0  0  0  0  0  0
    4.0709   -4.3828    0.0000 C   0  0  0  0  0  0  0  0  0  0  0  0
    3.7353   -5.1365    0.0000 C   0  0  0  0  0  0  0  0  0  0  0  0
    4.2202   -5.8039    0.0000 Cl  0  0  0  0  0  0  0  0  0  0  0  0
    2.9148   -5.2227    0.0000 C   0  0  0  0  0  0  0  0  0  0  0  0
    2.4299   -4.5553    0.0000 C   0  0  0  0  0  0  0  0  0  0  0  0
    2.7655   -3.8016    0.0000 C   0  0  0  0  0  0  0  0  0  0  0  0
    3.5859   -3.7154    0.0000 C   0  0  0  0  0  0  0  0  0  0  0  0
    3.4144   -2.9084    0.0000 F   0  0  0  0  0  0  0  0  0  0  0  0
    3.7676   -1.4544    0.0000 C   0  0  0  0  0  0  0  0  0  0  0  0
    3.5127   -0.6697    0.0000 C   0  0  0  0  0  0  0  0  0  0  0  0
    2.7281   -0.4148    0.0000 C   0  0  0  0  0  0  0  0  0  0  0  0
    2.5565    0.3922    0.0000 O   0  0  0  0  0  0  0  0  0  0  0  0
  1  2  1  0  0  0  0
  2  3  1  0  0  0  0
  3  4  1  0  0  0  0
  4  5  2  0  0  0  0
  5  6  1  0  0  0  0
  6  7  1  0  0  0  0
  7  8  2  0  0  0  0
  7  9  1  0  0  0  0
  9 10  2  0  0  0  0
 10 11  1  0  0  0  0
 10 12  1  0  0  0  0
 12 13  1  0  0  0  0
 13 14  2  0  0  0  0
 13 15  1  0  0  0  0
 15 16  1  0  0  0  0
  9 16  1  0  0  0  0
 16 17  1  0  0  0  0
 17 18  2  0  0  0  0
 18 19  1  0  0  0  0
 18 20  1  0  0  0  0
 20 21  2  0  0  0  0
 21 22  1  0  0  0  0
 22 23  2  0  0  0  0
 17 23  1  0  0  0  0
 23 24  1  0  0  0  0
  5 25  1  0  0  0  0
 25 26  2  0  0  0  0
  3 26  1  0  0  0  0
 26 27  1  0  0  0  0
 27 28  1  0  0  0  0
M  END
> <ID>
CPD_1487

$$$$
CPD_1492
  Mrv1822 09091914012D          

 25 27  0  0  0  0            999 V2000
   -0.5662   -4.8202    0.0000 C   0  0  0  0  0  0  0  0  0  0  0  0
    0.1483   -5.2327    0.0000 C   0  0  0  0  0  0  0  0  0  0  0  0
    0.8628   -4.8202    0.0000 O   0  0  0  0  0  0  0  0  0  0  0  0
    1.5772   -5.2327    0.0000 C   0  0  0  0  0  0  0  0  0  0  0  0
    1.5772   -6.0577    0.0000 O   0  0  0  0  0  0  0  0  0  0  0  0
    2.2917   -4.8202    0.0000 C   0  0  0  0  0  0  0  0  0  0  0  0
    2.2917   -3.9952    0.0000 C   0  0  0  0  0  0  0  0  0  0  0  0
    1.6243   -3.5103    0.0000 C   0  0  0  0  0  0  0  0  0  0  0  0
    1.8792   -2.7257    0.0000 C   0  0  0  0  0  0  0  0  0  0  0  0
    2.7042   -2.7257    0.0000 C   0  0  0  0  0  0  0  0  0  0  0  0
    2.9591   -3.5103    0.0000 C   0  0  0  0  0  0  0  0  0  0  0  0
    3.0062   -5.2327    0.0000 C   0  0  0  0  0  0  0  0  0  0  0  0
    3.0062   -6.0577    0.0000 O   0  0  0  0  0  0  0  0  0  0  0  0
    3.7206   -4.8202    0.0000 N   0  0  0  0  0  0  0  0  0  0  0  0
    3.7206   -3.9952    0.0000 C   0  0  0  0  0  0  0  0  0  0  0  0
    4.4351   -5.2327    0.0000 C   0  0  0  0  0  0  0  0  0  0  0  0
    5.1496   -4.8202    0.0000 C   0  0  0  0  0  0  0  0  0  0  0  0
    5.2358   -3.9997    0.0000 N   0  0  0  0  0  0  0  0  0  0  0  0
    6.0428   -3.8282    0.0000 N   0  0  0  0  0  0  0  0  0  0  0  0
    6.3783   -3.0745    0.0000 C   0  0  0  0  0  0  0  0  0  0  0  0
    6.4553   -4.5427    0.0000 C   0  0  0  0  0  0  0  0  0  0  0  0
    5.9033   -5.1558    0.0000 C   0  0  0  0  0  0  0  0  0  0  0  0
    7.2758   -4.6289    0.0000 C   0  0  0  0  0  0  0  0  0  0  0  0
    8.0294   -4.2934    0.0000 C   0  0  0  0  0  0  0  0  0  0  0  0
    7.9432   -5.1138    0.0000 C   0  0  0  0  0  0  0  0  0  0  0  0
  1  2  1  0  0  0  0
  2  3  1  0  0  0  0
  3  4  1  0  0  0  0
  4  5  2  0  0  0  0
  4  6  1  0  0  0  0
  6  7  1  0  0  0  0
  7  8  1  0  0  0  0
  8  9  1  0  0  0  0
  9 10  1  0  0  0  0
 10 11  1  0  0  0  0
  7 11  1  0  0  0  0
  6 12  1  0  0  0  0
 12 13  2  0  0  0  0
 12 14  1  0  0  0  0
 14 15  1  0  0  0  0
 14 16  1  0  0  0  0
 16 17  1  0  0  0  0
 17 18  2  0  0  0  0
 18 19  1  0  0  0  0
 19 20  1  0  0  0  0
 19 21  1  0  0  0  0
 21 22  2  0  0  0  0
 17 22  1  0  0  0  0
 21 23  1  0  0  0  0
 23 24  1  0  0  0  0
 24 25  1  0  0  0  0
 23 25  1  0  0  0  0
M  END
> <ID>
CPD_1492

$$$$
CPD_1497
  Mrv1822 09091914012D          

 21 23  0  0  0  0            999 V2000
    3.8245   -0.9901    0.0000 C   0  0  0  0  0  0  0  0  0  0  0  0
    3.0040   -1.0763    0.0000 N   0  0  0  0  0  0  0  0  0  0  0  0
    2.6685   -1.8300    0.0000 C   0  0  0  0  0  0  0  0  0  0  0  0
    3.1534   -2.4975    0.0000 C   0  0  0  0  0  0  0  0  0  0  0  0
    3.9784   -2.4975    0.0000 N   0  0  0  0  0  0  0  0  0  0  0  0
    4.2334   -3.2821    0.0000 N   0  0  0  0  0  0  0  0  0  0  0  0
    5.0180   -3.5370    0.0000 C   0  0  0  0  0  0  0  0  0  0  0  0
    3.5659   -3.7670    0.0000 C   0  0  0  0  0  0  0  0  0  0  0  0
    2.8985   -3.2821    0.0000 C   0  0  0  0  0  0  0  0  0  0  0  0
    3.5659   -4.5920    0.0000 C   0  0  0  0  0  0  0  0  0  0  0  0
    3.9784   -5.3065    0.0000 C   0  0  0  0  0  0  0  0  0  0  0  0
    3.1534   -5.3065    0.0000 C   0  0  0  0  0  0  0  0  0  0  0  0
    2.5191   -0.4089    0.0000 C   0  0  0  0  0  0  0  0  0  0  0  0
    1.6986   -0.4951    0.0000 O   0  0  0  0  0  0  0  0  0  0  0  0
    2.8547    0.3448    0.0000 C   0  0  0  0  0  0  0  0  0  0  0  0
    2.3698    1.0122    0.0000 C   0  0  0  0  0  0  0  0  0  0  0  0
    1.5493    0.9260    0.0000 C   0  0  0  0  0  0  0  0  0  0  0  0
    2.7053    1.7659    0.0000 C   0  0  0  0  0  0  0  0  0  0  0  0
    3.5258    1.8521    0.0000 C   0  0  0  0  0  0  0  0  0  0  0  0
    4.0107    1.1847    0.0000 C   0  0  0  0  0  0  0  0  0  0  0  0
    3.6752    0.4310    0.0000 N   0  0  0  0  0  0  0  0  0  0  0  0
  1  2  1  0  0  0  0
  2  3  1  0  0  0  0
  3  4  1  0  0  0  0
  4  5  2  0  0  0  0
  5  6  1  0  0  0  0
  6  7  1  0  0  0  0
  6  8  1  0  0  0  0
  8  9  2  0  0  0  0
  4  9  1  0  0  0  0
  8 10  1  0  0  0  0
 10 11  1  0  0  0  0
 11 12  1  0  0  0  0
 10 12  1  0  0  0  0
  2 13  1  0  0  0  0
 13 14  2  0  0  0  0
 13 15  1  0  0  0  0
 15 16  2  0  0  0  0
 16 17  1  0  0  0  0
 16 18  1  0  0  0  0
 18 19  2  0  0  0  0
 19 20  1  0  0  0  0
 20 21  2  0  0  0  0
 15 21  1  0  0  0  0
M  END
> <ID>
CPD_1497

$$$$
CPD_1502
  Mrv1822 09091914012D          

 29 32  0  0  0  0            999 V2000
    0.3415   -6.1114    0.0000 C   0  0  0  0  0  0  0  0  0  0  0  0
    0.6771   -5.3578    0.0000 N   0  0  0  0  0  0  0  0  0  0  0  0
    1.4975   -5.2715    0.0000 C   0  0  0  0  0  0  0  0  0  0  0  0
    1.9825   -5.9390    0.0000 C   0  0  0  0  0  0  0  0  0  0  0  0
    2.8075   -5.9390    0.0000 N   0  0  0  0  0  0  0  0  0  0  0  0
    3.0624   -6.7236    0.0000 N   0  0  0  0  0  0  0  0  0  0  0  0
    3.8470   -6.9785    0.0000 C   0  0  0  0  0  0  0  0  0  0  0  0
    2.3950   -7.2085    0.0000 C   0  0  0  0  0  0  0  0  0  0  0  0
    1.7275   -6.7236    0.0000 C   0  0  0  0  0  0  0  0  0  0  0  0
    2.3950   -8.0335    0.0000 C   0  0  0  0  0  0  0  0  0  0  0  0
    2.8075   -8.7480    0.0000 C   0  0  0  0  0  0  0  0  0  0  0  0
    1.9825   -8.7480    0.0000 C   0  0  0  0  0  0  0  0  0  0  0  0
    0.1921   -4.6903    0.0000 C   0  0  0  0  0  0  0  0  0  0  0  0
    0.5277   -3.9367    0.0000 O   0  0  0  0  0  0  0  0  0  0  0  0
   -0.6283   -4.7766    0.0000 C   0  0  0  0  0  0  0  0  0  0  0  0
   -0.9639   -5.5302    0.0000 C   0  0  0  0  0  0  0  0  0  0  0  0
   -1.7844   -5.6165    0.0000 C   0  0  0  0  0  0  0  0  0  0  0  0
   -2.1199   -6.3702    0.0000 O   0  0  0  0  0  0  0  0  0  0  0  0
   -2.2693   -4.9490    0.0000 C   0  0  0  0  0  0  0  0  0  0  0  0
   -1.9337   -4.1954    0.0000 C   0  0  0  0  0  0  0  0  0  0  0  0
   -2.4187   -3.5279    0.0000 O   0  0  0  0  0  0  0  0  0  0  0  0
   -3.2392   -3.6142    0.0000 C   0  0  0  0  0  0  0  0  0  0  0  0
   -3.7241   -2.9467    0.0000 C   0  0  0  0  0  0  0  0  0  0  0  0
   -4.5446   -3.0330    0.0000 C   0  0  0  0  0  0  0  0  0  0  0  0
   -5.0295   -2.3655    0.0000 C   0  0  0  0  0  0  0  0  0  0  0  0
   -4.6939   -1.6118    0.0000 C   0  0  0  0  0  0  0  0  0  0  0  0
   -3.8734   -1.5256    0.0000 C   0  0  0  0  0  0  0  0  0  0  0  0
   -3.3885   -2.1930    0.0000 C   0  0  0  0  0  0  0  0  0  0  0  0
   -1.1133   -4.1091    0.0000 C   0  0  0  0  0  0  0  0  0  0  0  0
  1  2  1  0  0  0  0
  2  3  1  0  0  0  0
  3  4  1  0  0  0  0
  4  5  2  0  0  0  0
  5  6  1  0  0  0  0
  6  7  1  0  0  0  0
  6  8  1  0  0  0  0
  8  9  2  0  0  0  0
  4  9  1  0  0  0  0
  8 10  1  0  0  0  0
 10 11  1  0  0  0  0
 11 12  1  0  0  0  0
 10 12  1  0  0  0  0
  2 13  1  0  0  0  0
 13 14  2  0  0  0  0
 13 15  1  0  0  0  0
 15 16  2  0  0  0  0
 16 17  1  0  0  0  0
 17 18  1  0  0  0  0
 17 19  2  0  0  0  0
 19 20  1  0  0  0  0
 20 21  1  0  0  0  0
 21 22  1  0  0  0  0
 22 23  1  0  0  0  0
 23 24  2  0  0  0  0
 24 25  1  0  0  0  0
 25 26  2  0  0  0  0
 26 27  1  0  0  0  0
 27 28  2  0  0  0  0
 23 28  1  0  0  0  0
 20 29  2  0  0  0  0
 15 29  1  0  0  0  0
M  END
> <ID>
CPD_1502

$$$$
CPD_1507
  Mrv1822 09091914012D          

 30 31  0  0  1  0            999 V2000
    1.9453   -5.3867    0.0000 C   0  0  0  0  0  0  0  0  0  0  0  0
    2.1434   -6.1875    0.0000 O   0  0  0  0  0  0  0  0  0  0  0  0
    2.9360   -6.4163    0.0000 C   0  0  0  0  0  0  0  0  0  0  0  0
    3.5305   -5.8443    0.0000 O   0  0  0  0  0  0  0  0  0  0  0  0
    3.1342   -7.2172    0.0000 C   0  0  2  0  0  0  0  0  0  0  0  0
    2.5397   -7.7892    0.0000 C   0  0  0  0  0  0  0  0  0  0  0  0
    1.7471   -7.5604    0.0000 C   0  0  0  0  0  0  0  0  0  0  0  0
    1.1526   -8.1324    0.0000 C   0  0  0  0  0  0  0  0  0  0  0  0
    0.3600   -7.9036    0.0000 C   0  0  0  0  0  0  0  0  0  0  0  0
    0.1618   -7.1028    0.0000 C   0  0  0  0  0  0  0  0  0  0  0  0
    0.7563   -6.5307    0.0000 C   0  0  0  0  0  0  0  0  0  0  0  0
    1.5489   -6.7595    0.0000 C   0  0  0  0  0  0  0  0  0  0  0  0
    3.9268   -7.4460    0.0000 N   0  0  0  0  0  0  0  0  0  0  0  0
    4.5213   -6.8739    0.0000 C   0  0  0  0  0  0  0  0  0  0  0  0
    4.3232   -6.0731    0.0000 O   0  0  0  0  0  0  0  0  0  0  0  0
    5.3140   -7.1028    0.0000 C   0  0  0  0  0  0  0  0  0  0  0  0
    5.9084   -6.5307    0.0000 C   0  0  2  0  0  0  0  0  0  0  0  0
    5.7103   -5.7299    0.0000 N   0  0  0  0  0  0  0  0  0  0  0  0
    6.7011   -6.7595    0.0000 C   0  0  0  0  0  0  0  0  0  0  0  0
    6.8992   -7.5604    0.0000 O   0  0  0  0  0  0  0  0  0  0  0  0
    7.2955   -6.1875    0.0000 N   0  0  0  0  0  0  0  0  0  0  0  0
    8.0882   -6.4163    0.0000 C   0  0  0  0  0  0  0  0  0  0  0  0
    8.6826   -5.8443    0.0000 C   0  0  0  0  0  0  0  0  0  0  0  0
    8.4845   -5.0434    0.0000 Cl  0  0  0  0  0  0  0  0  0  0  0  0
    9.4753   -6.0731    0.0000 C   0  0  0  0  0  0  0  0  0  0  0  0
   10.0698   -5.5011    0.0000 Cl  0  0  0  0  0  0  0  0  0  0  0  0
    9.6734   -6.8739    0.0000 C   0  0  0  0  0  0  0  0  0  0  0  0
   10.4661   -7.1028    0.0000 O   0  0  0  0  0  0  0  0  0  0  0  0
    9.0790   -7.4460    0.0000 C   0  0  0  0  0  0  0  0  0  0  0  0
    8.2863   -7.2172    0.0000 C   0  0  0  0  0  0  0  0  0  0  0  0
  1  2  1  0  0  0  0
  2  3  1  0  0  0  0
  3  4  2  0  0  0  0
  5  3  1  0  0  0  0
  5  6  1  0  0  0  0
  6  7  1  0  0  0  0
  7  8  2  0  0  0  0
  8  9  1  0  0  0  0
  9 10  2  0  0  0  0
 10 11  1  0  0  0  0
 11 12  2  0  0  0  0
  7 12  1  0  0  0  0
  5 13  1  1  0  0  0
 13 14  1  0  0  0  0
 14 15  2  0  0  0  0
 14 16  1  0  0  0  0
 17 16  1  0  0  0  0
 17 18  1  6  0  0  0
 17 19  1  0  0  0  0
 19 20  2  0  0  0  0
 19 21  1  0  0  0  0
 21 22  1  0  0  0  0
 22 23  2  0  0  0  0
 23 24  1  0  0  0  0
 23 25  1  0  0  0  0
 25 26  1  0  0  0  0
 25 27  2  0  0  0  0
 27 28  1  0  0  0  0
 27 29  1  0  0  0  0
 29 30  2  0  0  0  0
 22 30  1  0  0  0  0
M  END
> <ID>
CPD_1507

$$$$
CPD_1512
  Mrv1822 09091914012D          

 21 22  0  0  0  0            999 V2000
    1.2197    7.8875    0.0000 C   0  0  0  0  0  0  0  0  0  0  0  0
    1.2197    7.0625    0.0000 O   0  0  0  0  0  0  0  0  0  0  0  0
    1.9341    6.6500    0.0000 C   0  0  0  0  0  0  0  0  0  0  0  0
    2.6486    7.0625    0.0000 C   0  0  0  0  0  0  0  0  0  0  0  0
    2.6486    7.8875    0.0000 C   0  0  0  0  0  0  0  0  0  0  0  0
    3.3631    6.6500    0.0000 C   0  0  0  0  0  0  0  0  0  0  0  0
    3.3631    5.8250    0.0000 C   0  0  0  0  0  0  0  0  0  0  0  0
    4.0776    5.4125    0.0000 Br  0  0  0  0  0  0  0  0  0  0  0  0
    2.6486    5.4125    0.0000 C   0  0  0  0  0  0  0  0  0  0  0  0
    1.9341    5.8250    0.0000 C   0  0  0  0  0  0  0  0  0  0  0  0
    2.6486    4.5875    0.0000 C   0  0  0  0  0  0  0  0  0  0  0  0
    1.9341    4.1750    0.0000 O   0  0  0  0  0  0  0  0  0  0  0  0
    3.3631    4.1750    0.0000 N   0  0  0  0  0  0  0  0  0  0  0  0
    3.3631    3.3500    0.0000 C   0  0  0  0  0  0  0  0  0  0  0  0
    3.9465    2.7667    0.0000 C   0  0  0  0  0  0  0  0  0  0  0  0
    3.3631    2.1833    0.0000 N   0  0  0  0  0  0  0  0  0  0  0  0
    3.3631    1.3583    0.0000 C   0  0  0  0  0  0  0  0  0  0  0  0
    2.6486    0.9458    0.0000 C   0  0  0  0  0  0  0  0  0  0  0  0
    2.6486    0.1208    0.0000 F   0  0  0  0  0  0  0  0  0  0  0  0
    1.9341    1.3583    0.0000 F   0  0  0  0  0  0  0  0  0  0  0  0
    2.7797    2.7667    0.0000 C   0  0  0  0  0  0  0  0  0  0  0  0
  1  2  1  0  0  0  0
  2  3  1  0  0  0  0
  3  4  2  0  0  0  0
  4  5  1  0  0  0  0
  4  6  1  0  0  0  0
  6  7  2  0  0  0  0
  7  8  1  0  0  0  0
  7  9  1  0  0  0  0
  9 10  2  0  0  0  0
  3 10  1  0  0  0  0
  9 11  1  0  0  0  0
 11 12  2  0  0  0  0
 11 13  1  0  0  0  0
 13 14  1  0  0  0  0
 14 15  1  0  0  0  0
 15 16  1  0  0  0  0
 16 17  1  0  0  0  0
 17 18  1  0  0  0  0
 18 19  1  0  0  0  0
 18 20  1  0  0  0  0
 16 21  1  0  0  0  0
 14 21  1  0  0  0  0
M  END
> <ID>
CPD_1512

$$$$
CPD_1517
  Mrv1822 09091914012D          

 22 24  0  0  0  0            999 V2000
    0.0000   -1.6500    0.0000 N   0  0  0  0  0  0  0  0  0  0  0  0
    0.7145   -1.2375    0.0000 C   0  0  0  0  0  0  0  0  0  0  0  0
    0.7145   -0.4125    0.0000 N   0  0  0  0  0  0  0  0  0  0  0  0
    1.4289    0.0000    0.0000 C   0  0  0  0  0  0  0  0  0  0  0  0
    2.1434   -0.4125    0.0000 C   0  0  0  0  0  0  0  0  0  0  0  0
    2.8579    0.0000    0.0000 C   0  0  0  0  0  0  0  0  0  0  0  0
    3.5724   -0.4125    0.0000 C   0  0  0  0  0  0  0  0  0  0  0  0
    3.5724   -1.2375    0.0000 C   0  0  0  0  0  0  0  0  0  0  0  0
    2.8579   -1.6500    0.0000 C   0  0  0  0  0  0  0  0  0  0  0  0
    2.1434   -1.2375    0.0000 C   0  0  0  0  0  0  0  0  0  0  0  0
    1.4289   -1.6500    0.0000 N   0  0  0  0  0  0  0  0  0  0  0  0
    4.2868   -0.0000    0.0000 C   0  0  0  0  0  0  0  0  0  0  0  0
    5.0013   -0.4125    0.0000 O   0  0  0  0  0  0  0  0  0  0  0  0
    4.2868    0.8250    0.0000 N   0  0  0  0  0  0  0  0  0  0  0  0
    5.0013    1.2375    0.0000 C   0  0  0  0  0  0  0  0  0  0  0  0
    5.2148    2.0344    0.0000 C   0  0  0  0  0  0  0  0  0  0  0  0
    6.0117    1.8209    0.0000 N   0  0  0  0  0  0  0  0  0  0  0  0
    6.7262    2.2334    0.0000 C   0  0  0  0  0  0  0  0  0  0  0  0
    7.4407    1.8209    0.0000 C   0  0  0  0  0  0  0  0  0  0  0  0
    8.1551    2.2334    0.0000 F   0  0  0  0  0  0  0  0  0  0  0  0
    7.4407    0.9959    0.0000 F   0  0  0  0  0  0  0  0  0  0  0  0
    5.7982    1.0240    0.0000 C   0  0  0  0  0  0  0  0  0  0  0  0
  1  2  1  0  0  0  0
  2  3  2  0  0  0  0
  3  4  1  0  0  0  0
  4  5  2  0  0  0  0
  5  6  1  0  0  0  0
  6  7  1  0  0  0  0
  7  8  1  0  0  0  0
  8  9  1  0  0  0  0
  9 10  1  0  0  0  0
  5 10  1  0  0  0  0
 10 11  2  0  0  0  0
  2 11  1  0  0  0  0
  7 12  1  0  0  0  0
 12 13  2  0  0  0  0
 12 14  1  0  0  0  0
 14 15  1  0  0  0  0
 15 16  1  0  0  0  0
 16 17  1  0  0  0  0
 17 18  1  0  0  0  0
 18 19  1  0  0  0  0
 19 20  1  0  0  0  0
 19 21  1  0  0  0  0
 17 22  1  0  0  0  0
 15 22  1  0  0  0  0
M  END
> <ID>
CPD_1517

$$$$
CPD_1522
  Mrv1822 09091914012D          

 25 26  0  0  1  0            999 V2000
   -1.4289   -4.9500    0.0000 C   0  0  0  0  0  0  0  0  0  0  0  0
   -1.4289   -4.1250    0.0000 C   0  0  0  0  0  0  0  0  0  0  0  0
   -2.1434   -3.7125    0.0000 C   0  0  0  0  0  0  0  0  0  0  0  0
   -0.7145   -3.7125    0.0000 N   0  0  0  0  0  0  0  0  0  0  0  0
   -0.7145   -2.8875    0.0000 C   0  0  0  0  0  0  0  0  0  0  0  0
   -1.4289   -2.4750    0.0000 N   0  0  0  0  0  0  0  0  0  0  0  0
   -1.4289   -1.6500    0.0000 C   0  0  0  0  0  0  0  0  0  0  0  0
   -0.7145   -1.2375    0.0000 C   0  0  0  0  0  0  0  0  0  0  0  0
   -0.7145   -0.4125    0.0000 C   0  0  0  0  0  0  0  0  0  0  0  0
    0.0000   -1.6500    0.0000 C   0  0  0  0  0  0  0  0  0  0  0  0
    0.0000   -2.4750    0.0000 C   0  0  0  0  0  0  0  0  0  0  0  0
    0.7145   -2.8875    0.0000 N   0  0  0  0  0  0  0  0  0  0  0  0
    1.4289   -2.4750    0.0000 C   0  0  0  0  0  0  0  0  0  0  0  0
    1.4289   -1.6500    0.0000 O   0  0  0  0  0  0  0  0  0  0  0  0
    2.1434   -2.8875    0.0000 C   0  0  1  0  0  0  0  0  0  0  0  0
    2.1434   -3.7125    0.0000 N   0  0  0  0  0  0  0  0  0  0  0  0
    2.8579   -2.4750    0.0000 C   0  0  0  0  0  0  0  0  0  0  0  0
    3.5724   -2.8875    0.0000 C   0  0  0  0  0  0  0  0  0  0  0  0
    4.2868   -2.4750    0.0000 C   0  0  0  0  0  0  0  0  0  0  0  0
    5.0013   -2.8875    0.0000 C   0  0  0  0  0  0  0  0  0  0  0  0
    5.7158   -2.4750    0.0000 N   0  0  0  0  0  0  0  0  0  0  0  0
    5.0013   -3.7125    0.0000 C   0  0  0  0  0  0  0  0  0  0  0  0
    5.7158   -4.1250    0.0000 O   0  0  0  0  0  0  0  0  0  0  0  0
    4.2868   -4.1250    0.0000 C   0  0  0  0  0  0  0  0  0  0  0  0
    3.5724   -3.7125    0.0000 C   0  0  0  0  0  0  0  0  0  0  0  0
  1  2  1  0  0  0  0
  2  3  1  0  0  0  0
  2  4  1  0  0  0  0
  4  5  1  0  0  0  0
  5  6  2  0  0  0  0
  6  7  1  0  0  0  0
  7  8  2  0  0  0  0
  8  9  1  0  0  0  0
  8 10  1  0  0  0  0
 10 11  2  0  0  0  0
  5 11  1  0  0  0  0
 11 12  1  0  0  0  0
 12 13  1  0  0  0  0
 13 14  2  0  0  0  0
 15 13  1  0  0  0  0
 15 16  1  6  0  0  0
 15 17  1  0  0  0  0
 17 18  1  0  0  0  0
 18 19  2  0  0  0  0
 19 20  1  0  0  0  0
 20 21  1  0  0  0  0
 20 22  2  0  0  0  0
 22 23  1  0  0  0  0
 22 24  1  0  0  0  0
 24 25  2  0  0  0  0
 18 25  1  0  0  0  0
M  END
> <ID>
CPD_1522

$$$$
CPD_1527
  Mrv1822 09091914012D          

 22 23  0  0  0  0            999 V2000
    3.5724   -0.4125    0.0000 C   0  0  0  0  0  0  0  0  0  0  0  0
    3.5724   -1.2375    0.0000 C   0  0  0  0  0  0  0  0  0  0  0  0
    2.8579   -1.6500    0.0000 N   0  0  0  0  0  0  0  0  0  0  0  0
    2.8579   -2.4750    0.0000 C   0  0  0  0  0  0  0  0  0  0  0  0
    3.5724   -2.8875    0.0000 N   0  0  0  0  0  0  0  0  0  0  0  0
    3.5724   -3.7125    0.0000 C   0  0  0  0  0  0  0  0  0  0  0  0
    2.8579   -4.1250    0.0000 C   0  0  0  0  0  0  0  0  0  0  0  0
    2.8579   -4.9500    0.0000 C   0  0  0  0  0  0  0  0  0  0  0  0
    2.1434   -3.7125    0.0000 C   0  0  0  0  0  0  0  0  0  0  0  0
    2.1434   -2.8875    0.0000 C   0  0  0  0  0  0  0  0  0  0  0  0
    1.4289   -2.4750    0.0000 N   0  0  0  0  0  0  0  0  0  0  0  0
    1.4289   -1.6500    0.0000 C   0  0  0  0  0  0  0  0  0  0  0  0
    2.1434   -1.2375    0.0000 O   0  0  0  0  0  0  0  0  0  0  0  0
    0.7145   -1.2375    0.0000 C   0  0  0  0  0  0  0  0  0  0  0  0
    0.7145   -0.4125    0.0000 N   0  0  0  0  0  0  0  0  0  0  0  0
    0.0000    0.0000    0.0000 C   0  0  0  0  0  0  0  0  0  0  0  0
    0.0000    0.8250    0.0000 C   0  0  0  0  0  0  0  0  0  0  0  0
   -0.7145    1.2375    0.0000 C   0  0  0  0  0  0  0  0  0  0  0  0
    0.7145    1.2375    0.0000 O   0  0  0  0  0  0  0  0  0  0  0  0
    1.4289    0.8250    0.0000 C   0  0  0  0  0  0  0  0  0  0  0  0
    2.1434    1.2375    0.0000 C   0  0  0  0  0  0  0  0  0  0  0  0
    1.4289    0.0000    0.0000 C   0  0  0  0  0  0  0  0  0  0  0  0
  1  2  1  0  0  0  0
  2  3  1  0  0  0  0
  3  4  1  0  0  0  0
  4  5  2  0  0  0  0
  5  6  1  0  0  0  0
  6  7  2  0  0  0  0
  7  8  1  0  0  0  0
  7  9  1  0  0  0  0
  9 10  2  0  0  0  0
  4 10  1  0  0  0  0
 10 11  1  0  0  0  0
 11 12  1  0  0  0  0
 12 13  2  0  0  0  0
 12 14  1  0  0  0  0
 14 15  1  0  0  0  0
 15 16  1  0  0  0  0
 16 17  1  0  0  0  0
 17 18  1  0  0  0  0
 17 19  1  0  0  0  0
 19 20  1  0  0  0  0
 20 21  1  0  0  0  0
 20 22  1  0  0  0  0
 15 22  1  0  0  0  0
M  END
> <ID>
CPD_1527

$$$$
CPD_1532
  Mrv1822 09091914012D          

 30 32  0  0  0  0            999 V2000
    1.6549   -7.8730    0.0000 C   0  0  0  0  0  0  0  0  0  0  0  0
    0.8345   -7.9592    0.0000 C   0  0  0  0  0  0  0  0  0  0  0  0
    0.3495   -7.2918    0.0000 N   0  0  0  0  0  0  0  0  0  0  0  0
   -0.4709   -7.3780    0.0000 C   0  0  0  0  0  0  0  0  0  0  0  0
   -0.8065   -8.1317    0.0000 N   0  0  0  0  0  0  0  0  0  0  0  0
   -1.6270   -8.2179    0.0000 C   0  0  0  0  0  0  0  0  0  0  0  0
   -2.1119   -7.5505    0.0000 C   0  0  0  0  0  0  0  0  0  0  0  0
   -2.9324   -7.6367    0.0000 C   0  0  0  0  0  0  0  0  0  0  0  0
   -1.7763   -6.7968    0.0000 C   0  0  0  0  0  0  0  0  0  0  0  0
   -0.9559   -6.7106    0.0000 C   0  0  0  0  0  0  0  0  0  0  0  0
   -0.6203   -5.9569    0.0000 N   0  0  0  0  0  0  0  0  0  0  0  0
    0.2002   -5.8707    0.0000 C   0  0  0  0  0  0  0  0  0  0  0  0
    0.6851   -6.5381    0.0000 O   0  0  0  0  0  0  0  0  0  0  0  0
    0.5357   -5.1170    0.0000 C   0  0  0  0  0  0  0  0  0  0  0  0
    0.1232   -4.4025    0.0000 C   0  0  0  0  0  0  0  0  0  0  0  0
    0.6753   -3.7894    0.0000 N   0  0  0  0  0  0  0  0  0  0  0  0
    1.4289   -4.1250    0.0000 C   0  0  0  0  0  0  0  0  0  0  0  0
    2.1434   -3.7125    0.0000 C   0  0  0  0  0  0  0  0  0  0  0  0
    2.8579   -4.1250    0.0000 N   0  0  0  0  0  0  0  0  0  0  0  0
    3.5724   -3.7125    0.0000 C   0  0  0  0  0  0  0  0  0  0  0  0
    3.5724   -2.8875    0.0000 O   0  0  0  0  0  0  0  0  0  0  0  0
    4.2868   -4.1250    0.0000 O   0  0  0  0  0  0  0  0  0  0  0  0
    5.0013   -3.7125    0.0000 C   0  0  0  0  0  0  0  0  0  0  0  0
    5.7158   -4.1250    0.0000 C   0  0  0  0  0  0  0  0  0  0  0  0
    6.4302   -3.7125    0.0000 C   0  0  0  0  0  0  0  0  0  0  0  0
    7.1447   -4.1250    0.0000 C   0  0  0  0  0  0  0  0  0  0  0  0
    7.1447   -4.9500    0.0000 C   0  0  0  0  0  0  0  0  0  0  0  0
    6.4302   -5.3625    0.0000 C   0  0  0  0  0  0  0  0  0  0  0  0
    5.7158   -4.9500    0.0000 C   0  0  0  0  0  0  0  0  0  0  0  0
    1.3427   -4.9455    0.0000 N   0  0  0  0  0  0  0  0  0  0  0  0
  1  2  1  0  0  0  0
  2  3  1  0  0  0  0
  3  4  1  0  0  0  0
  4  5  2  0  0  0  0
  5  6  1  0  0  0  0
  6  7  2  0  0  0  0
  7  8  1  0  0  0  0
  7  9  1  0  0  0  0
  9 10  2  0  0  0  0
  4 10  1  0  0  0  0
 10 11  1  0  0  0  0
 11 12  1  0  0  0  0
 12 13  2  0  0  0  0
 12 14  1  0  0  0  0
 14 15  2  0  0  0  0
 15 16  1  0  0  0  0
 16 17  2  0  0  0  0
 17 18  1  0  0  0  0
 18 19  1  0  0  0  0
 19 20  1  0  0  0  0
 20 21  2  0  0  0  0
 20 22  1  0  0  0  0
 22 23  1  0  0  0  0
 23 24  1  0  0  0  0
 24 25  2  0  0  0  0
 25 26  1  0  0  0  0
 26 27  2  0  0  0  0
 27 28  1  0  0  0  0
 28 29  2  0  0  0  0
 24 29  1  0  0  0  0
 17 30  1  0  0  0  0
 14 30  1  0  0  0  0
M  END
> <ID>
CPD_1532

$$$$
CPD_1537
  Mrv1822 09091914012D          

 29 31  0  0  0  0            999 V2000
    2.8579   -4.1250    0.0000 C   0  0  0  0  0  0  0  0  0  0  0  0
    2.8579   -4.9500    0.0000 C   0  0  0  0  0  0  0  0  0  0  0  0
    2.1434   -5.3625    0.0000 N   0  0  0  0  0  0  0  0  0  0  0  0
    2.1434   -6.1875    0.0000 C   0  0  0  0  0  0  0  0  0  0  0  0
    2.8579   -6.6000    0.0000 N   0  0  0  0  0  0  0  0  0  0  0  0
    2.8579   -7.4250    0.0000 C   0  0  0  0  0  0  0  0  0  0  0  0
    2.1434   -7.8375    0.0000 C   0  0  0  0  0  0  0  0  0  0  0  0
    2.1434   -8.6625    0.0000 C   0  0  0  0  0  0  0  0  0  0  0  0
    1.4289   -7.4250    0.0000 C   0  0  0  0  0  0  0  0  0  0  0  0
    1.4289   -6.6000    0.0000 C   0  0  0  0  0  0  0  0  0  0  0  0
    0.7145   -6.1875    0.0000 N   0  0  0  0  0  0  0  0  0  0  0  0
    0.0000   -6.6000    0.0000 C   0  0  0  0  0  0  0  0  0  0  0  0
    0.0000   -7.4250    0.0000 O   0  0  0  0  0  0  0  0  0  0  0  0
   -0.7145   -6.1875    0.0000 C   0  0  0  0  0  0  0  0  0  0  0  0
   -1.4289   -6.6000    0.0000 C   0  0  0  0  0  0  0  0  0  0  0  0
   -2.1434   -6.1875    0.0000 C   0  0  0  0  0  0  0  0  0  0  0  0
   -2.1434   -5.3625    0.0000 C   0  0  0  0  0  0  0  0  0  0  0  0
   -2.8579   -4.9500    0.0000 N   0  0  0  0  0  0  0  0  0  0  0  0
   -3.5724   -5.3625    0.0000 C   0  0  0  0  0  0  0  0  0  0  0  0
   -4.2868   -4.9500    0.0000 C   0  0  0  0  0  0  0  0  0  0  0  0
   -5.0013   -5.3625    0.0000 C   0  0  0  0  0  0  0  0  0  0  0  0
   -5.7158   -4.9500    0.0000 C   0  0  0  0  0  0  0  0  0  0  0  0
   -5.7158   -4.1250    0.0000 C   0  0  0  0  0  0  0  0  0  0  0  0
   -6.4302   -3.7125    0.0000 O   0  0  0  0  0  0  0  0  0  0  0  0
   -7.1447   -4.1250    0.0000 C   0  0  0  0  0  0  0  0  0  0  0  0
   -5.0013   -3.7125    0.0000 C   0  0  0  0  0  0  0  0  0  0  0  0
   -4.2868   -4.1250    0.0000 C   0  0  0  0  0  0  0  0  0  0  0  0
   -1.4289   -4.9500    0.0000 N   0  0  0  0  0  0  0  0  0  0  0  0
   -0.7145   -5.3625    0.0000 C   0  0  0  0  0  0  0  0  0  0  0  0
  1  2  1  0  0  0  0
  2  3  1  0  0  0  0
  3  4  1  0  0  0  0
  4  5  2  0  0  0  0
  5  6  1  0  0  0  0
  6  7  2  0  0  0  0
  7  8  1  0  0  0  0
  7  9  1  0  0  0  0
  9 10  2  0  0  0  0
  4 10  1  0  0  0  0
 10 11  1  0  0  0  0
 11 12  1  0  0  0  0
 12 13  2  0  0  0  0
 12 14  1  0  0  0  0
 14 15  2  0  0  0  0
 15 16  1  0  0  0  0
 16 17  2  0  0  0  0
 17 18  1  0  0  0  0
 18 19  1  0  0  0  0
 19 20  1  0  0  0  0
 20 21  2  0  0  0  0
 21 22  1  0  0  0  0
 22 23  2  0  0  0  0
 23 24  1  0  0  0  0
 24 25  1  0  0  0  0
 23 26  1  0  0  0  0
 26 27  2  0  0  0  0
 20 27  1  0  0  0  0
 17 28  1  0  0  0  0
 28 29  2  0  0  0  0
 14 29  1  0  0  0  0
M  END
> <ID>
CPD_1537

$$$$
CPD_1542
  Mrv1822 09091914012D          

 30 33  0  0  1  0            999 V2000
   -1.5418    4.2469    0.0000 C   0  0  0  0  0  0  0  0  0  0  0  0
   -1.0569    3.5795    0.0000 C   0  0  2  0  0  0  0  0  0  0  0  0
   -1.3924    2.8258    0.0000 N   0  0  0  0  0  0  0  0  0  0  0  0
   -0.2364    3.6657    0.0000 C   0  0  0  0  0  0  0  0  0  0  0  0
    0.0992    4.4194    0.0000 O   0  0  0  0  0  0  0  0  0  0  0  0
    0.2485    2.9983    0.0000 N   0  0  0  0  0  0  0  0  0  0  0  0
    1.0690    3.0845    0.0000 C   0  0  0  0  0  0  0  0  0  0  0  0
    1.4815    3.7990    0.0000 N   0  0  0  0  0  0  0  0  0  0  0  0
    2.2885    3.6275    0.0000 N   0  0  0  0  0  0  0  0  0  0  0  0
    2.3747    2.8070    0.0000 C   0  0  0  0  0  0  0  0  0  0  0  0
    3.0892    2.3945    0.0000 S   0  0  0  0  0  0  0  0  0  0  0  0
    3.0892    1.5695    0.0000 C   0  0  0  0  0  0  0  0  0  0  0  0
    3.8037    1.1570    0.0000 C   0  0  0  0  0  0  0  0  0  0  0  0
    4.5181    1.5695    0.0000 O   0  0  0  0  0  0  0  0  0  0  0  0
    3.8037    0.3320    0.0000 N   0  0  0  0  0  0  0  0  0  0  0  0
    4.5470   -0.0260    0.0000 C   0  0  0  0  0  0  0  0  0  0  0  0
    5.1517    0.5352    0.0000 C   0  0  0  0  0  0  0  0  0  0  0  0
    5.9401    0.2920    0.0000 C   0  0  0  0  0  0  0  0  0  0  0  0
    6.1237   -0.5123    0.0000 C   0  0  0  0  0  0  0  0  0  0  0  0
    5.5189   -1.0735    0.0000 C   0  0  0  0  0  0  0  0  0  0  0  0
    4.7305   -0.8303    0.0000 C   0  0  0  0  0  0  0  0  0  0  0  0
    4.2162   -1.4753    0.0000 C   0  0  0  0  0  0  0  0  0  0  0  0
    3.3912   -1.4753    0.0000 C   0  0  0  0  0  0  0  0  0  0  0  0
    2.8768   -0.8303    0.0000 C   0  0  0  0  0  0  0  0  0  0  0  0
    3.0604   -0.0260    0.0000 C   0  0  0  0  0  0  0  0  0  0  0  0
    2.4556    0.5352    0.0000 C   0  0  0  0  0  0  0  0  0  0  0  0
    1.6673    0.2920    0.0000 C   0  0  0  0  0  0  0  0  0  0  0  0
    1.4837   -0.5123    0.0000 C   0  0  0  0  0  0  0  0  0  0  0  0
    2.0884   -1.0735    0.0000 C   0  0  0  0  0  0  0  0  0  0  0  0
    1.6210    2.4714    0.0000 S   0  0  0  0  0  0  0  0  0  0  0  0
  2  1  1  0  0  0  0
  2  3  1  1  0  0  0
  2  4  1  0  0  0  0
  4  5  2  0  0  0  0
  4  6  1  0  0  0  0
  6  7  1  0  0  0  0
  7  8  2  0  0  0  0
  8  9  1  0  0  0  0
  9 10  2  0  0  0  0
 10 11  1  0  0  0  0
 11 12  1  0  0  0  0
 12 13  1  0  0  0  0
 13 14  2  0  0  0  0
 13 15  1  0  0  0  0
 15 16  1  0  0  0  0
 16 17  2  0  0  0  0
 17 18  1  0  0  0  0
 18 19  2  0  0  0  0
 19 20  1  0  0  0  0
 20 21  2  0  0  0  0
 16 21  1  0  0  0  0
 21 22  1  0  0  0  0
 22 23  1  0  0  0  0
 23 24  1  0  0  0  0
 24 25  2  0  0  0  0
 15 25  1  0  0  0  0
 25 26  1  0  0  0  0
 26 27  2  0  0  0  0
 27 28  1  0  0  0  0
 28 29  2  0  0  0  0
 24 29  1  0  0  0  0
 10 30  1  0  0  0  0
  7 30  1  0  0  0  0
M  END
> <ID>
CPD_1542

$$$$
CPD_1547
  Mrv1822 09091914012D          

 20 21  0  0  1  0            999 V2000
    2.1434   -1.2375    0.0000 O   0  0  0  0  0  0  0  0  0  0  0  0
    1.4289   -1.6500    0.0000 C   0  0  0  0  0  0  0  0  0  0  0  0
    0.7145   -1.2375    0.0000 O   0  0  0  0  0  0  0  0  0  0  0  0
    1.4289   -2.4750    0.0000 C   0  0  2  0  0  0  0  0  0  0  0  0
    2.1434   -2.8875    0.0000 C   0  0  0  0  0  0  0  0  0  0  0  0
    2.1434   -3.7125    0.0000 C   0  0  0  0  0  0  0  0  0  0  0  0
    1.4289   -4.1250    0.0000 C   0  0  0  0  0  0  0  0  0  0  0  0
    0.7145   -3.7125    0.0000 C   0  0  0  0  0  0  0  0  0  0  0  0
    0.7145   -2.8875    0.0000 C   0  0  2  0  0  0  0  0  0  0  0  0
    0.0000   -2.4750    0.0000 N   0  0  0  0  0  0  0  0  0  0  0  0
   -0.7145   -2.8875    0.0000 C   0  0  0  0  0  0  0  0  0  0  0  0
   -0.7145   -3.7125    0.0000 O   0  0  0  0  0  0  0  0  0  0  0  0
   -1.4289   -2.4750    0.0000 C   0  0  0  0  0  0  0  0  0  0  0  0
   -2.1434   -2.8875    0.0000 C   0  0  0  0  0  0  0  0  0  0  0  0
   -2.1434   -3.7125    0.0000 F   0  0  0  0  0  0  0  0  0  0  0  0
   -2.8579   -2.4750    0.0000 C   0  0  0  0  0  0  0  0  0  0  0  0
   -2.8579   -1.6500    0.0000 C   0  0  0  0  0  0  0  0  0  0  0  0
   -2.1434   -1.2375    0.0000 C   0  0  0  0  0  0  0  0  0  0  0  0
   -2.1434   -0.4125    0.0000 F   0  0  0  0  0  0  0  0  0  0  0  0
   -1.4289   -1.6500    0.0000 C   0  0  0  0  0  0  0  0  0  0  0  0
  1  2  1  0  0  0  0
  2  3  2  0  0  0  0
  4  2  1  6  0  0  0
  4  5  1  0  0  0  0
  5  6  1  0  0  0  0
  6  7  1  0  0  0  0
  7  8  1  0  0  0  0
  9  8  1  0  0  0  0
  4  9  1  0  0  0  0
  9 10  1  6  0  0  0
 10 11  1  0  0  0  0
 11 12  2  0  0  0  0
 11 13  1  0  0  0  0
 13 14  2  0  0  0  0
 14 15  1  0  0  0  0
 14 16  1  0  0  0  0
 16 17  2  0  0  0  0
 17 18  1  0  0  0  0
 18 19  1  0  0  0  0
 18 20  2  0  0  0  0
 13 20  1  0  0  0  0
M  END
> <ID>
CPD_1547

$$$$
CPD_1552
  Mrv1822 09091914012D          

 24 25  0  0  1  0            999 V2000
    1.4289   -0.0000    0.0000 C   0  0  0  0  0  0  0  0  0  0  0  0
    0.7145   -0.4125    0.0000 C   0  0  0  0  0  0  0  0  0  0  0  0
    0.7145   -1.2375    0.0000 O   0  0  0  0  0  0  0  0  0  0  0  0
    0.0000   -1.6500    0.0000 C   0  0  0  0  0  0  0  0  0  0  0  0
   -0.7145   -1.2375    0.0000 O   0  0  0  0  0  0  0  0  0  0  0  0
    0.0000   -2.4750    0.0000 C   0  0  0  0  0  0  0  0  0  0  0  0
    0.6674   -2.9599    0.0000 C   0  0  0  0  0  0  0  0  0  0  0  0
    1.4521   -2.7050    0.0000 C   0  0  0  0  0  0  0  0  0  0  0  0
    0.4125   -3.7445    0.0000 N   0  0  0  0  0  0  0  0  0  0  0  0
   -0.4125   -3.7445    0.0000 C   0  0  0  0  0  0  0  0  0  0  0  0
   -0.8974   -4.4120    0.0000 C   0  0  0  0  0  0  0  0  0  0  0  0
   -0.5619   -5.1657    0.0000 O   0  0  0  0  0  0  0  0  0  0  0  0
   -1.7179   -4.3257    0.0000 N   0  0  0  0  0  0  0  0  0  0  0  0
   -2.2028   -4.9932    0.0000 C   0  0  1  0  0  0  0  0  0  0  0  0
   -1.8673   -5.7469    0.0000 C   0  0  0  0  0  0  0  0  0  0  0  0
   -2.3522   -6.4143    0.0000 C   0  0  0  0  0  0  0  0  0  0  0  0
   -3.1727   -6.3281    0.0000 C   0  0  0  0  0  0  0  0  0  0  0  0
   -3.5082   -5.5744    0.0000 C   0  0  0  0  0  0  0  0  0  0  0  0
   -3.0233   -4.9070    0.0000 C   0  0  1  0  0  0  0  0  0  0  0  0
   -3.3589   -4.1533    0.0000 C   0  0  0  0  0  0  0  0  0  0  0  0
   -2.8739   -3.4858    0.0000 O   0  0  0  0  0  0  0  0  0  0  0  0
   -4.1793   -4.0670    0.0000 O   0  0  0  0  0  0  0  0  0  0  0  0
   -0.6674   -2.9599    0.0000 C   0  0  0  0  0  0  0  0  0  0  0  0
   -1.4521   -2.7050    0.0000 C   0  0  0  0  0  0  0  0  0  0  0  0
  1  2  1  0  0  0  0
  2  3  1  0  0  0  0
  3  4  1  0  0  0  0
  4  5  2  0  0  0  0
  4  6  1  0  0  0  0
  6  7  2  0  0  0  0
  7  8  1  0  0  0  0
  7  9  1  0  0  0  0
  9 10  1  0  0  0  0
 10 11  1  0  0  0  0
 11 12  2  0  0  0  0
 11 13  1  0  0  0  0
 14 13  1  1  0  0  0
 14 15  1  0  0  0  0
 15 16  1  0  0  0  0
 16 17  1  0  0  0  0
 17 18  1  0  0  0  0
 19 18  1  0  0  0  0
 14 19  1  0  0  0  0
 19 20  1  1  0  0  0
 20 21  1  0  0  0  0
 20 22  2  0  0  0  0
 10 23  2  0  0  0  0
  6 23  1  0  0  0  0
 23 24  1  0  0  0  0
M  END
> <ID>
CPD_1552

$$$$
CPD_1557
  Mrv1822 09091914012D          

 40 45  0  0  0  0            999 V2000
    3.8974    1.8646    0.0000 C   0  0  0  0  0  0  0  0  0  0  0  0
    3.6425    1.0799    0.0000 C   0  0  0  0  0  0  0  0  0  0  0  0
    4.1274    0.4125    0.0000 N   0  0  0  0  0  0  0  0  0  0  0  0
    3.6425   -0.2549    0.0000 N   0  0  0  0  0  0  0  0  0  0  0  0
    2.8579   -0.0000    0.0000 C   0  0  0  0  0  0  0  0  0  0  0  0
    2.8579    0.8250    0.0000 C   0  0  0  0  0  0  0  0  0  0  0  0
    2.1434    1.2375    0.0000 C   0  0  0  0  0  0  0  0  0  0  0  0
    2.1434    2.0625    0.0000 C   0  0  0  0  0  0  0  0  0  0  0  0
    1.4289    2.4750    0.0000 C   0  0  0  0  0  0  0  0  0  0  0  0
    1.4289    3.3000    0.0000 C   0  0  0  0  0  0  0  0  0  0  0  0
    2.1434    3.7125    0.0000 C   0  0  0  0  0  0  0  0  0  0  0  0
    2.8579    3.3000    0.0000 C   0  0  0  0  0  0  0  0  0  0  0  0
    2.8579    2.4750    0.0000 C   0  0  0  0  0  0  0  0  0  0  0  0
    2.1434    4.5375    0.0000 C   0  0  0  0  0  0  0  0  0  0  0  0
    2.8579    4.9500    0.0000 O   0  0  0  0  0  0  0  0  0  0  0  0
    1.4289    4.9500    0.0000 O   0  0  0  0  0  0  0  0  0  0  0  0
    1.4289    0.8250    0.0000 C   0  0  0  0  0  0  0  0  0  0  0  0
    1.4289    0.0000    0.0000 C   0  0  0  0  0  0  0  0  0  0  0  0
    0.7145   -0.4125    0.0000 C   0  0  0  0  0  0  0  0  0  0  0  0
    0.0000   -0.0000    0.0000 C   0  0  0  0  0  0  0  0  0  0  0  0
    0.0000    0.8250    0.0000 C   0  0  0  0  0  0  0  0  0  0  0  0
    0.7145    1.2375    0.0000 C   0  0  0  0  0  0  0  0  0  0  0  0
    0.7145    2.0625    0.0000 O   0  0  0  0  0  0  0  0  0  0  0  0
    2.1434   -0.4125    0.0000 N   0  0  0  0  0  0  0  0  0  0  0  0
    2.1434   -1.2375    0.0000 C   0  0  0  0  0  0  0  0  0  0  0  0
    2.8579   -1.6500    0.0000 O   0  0  0  0  0  0  0  0  0  0  0  0
    1.4289   -1.6500    0.0000 C   0  0  1  0  0  0  0  0  0  0  0  0
    1.4289   -2.4750    0.0000 C   0  0  0  0  0  0  0  0  0  0  0  0
    0.7145   -2.8875    0.0000 C   0  0  0  0  0  0  0  0  0  0  0  0
   -0.0000   -2.4750    0.0000 C   0  0  2  0  0  0  0  0  0  0  0  0
   -0.7145   -2.8875    0.0000 N   0  0  0  0  0  0  0  0  0  0  0  0
    0.0000   -1.6500    0.0000 C   0  0  0  0  0  0  0  0  0  0  0  0
    0.7145   -1.2375    0.0000 C   0  0  0  0  0  0  0  0  0  0  0  0
    3.8974   -1.0396    0.0000 C   0  0  0  0  0  0  0  0  0  0  0  0
    4.7044   -1.2111    0.0000 C   0  0  0  0  0  0  0  0  0  0  0  0
    4.9594   -1.9957    0.0000 C   0  0  0  0  0  0  0  0  0  0  0  0
    4.4073   -2.6088    0.0000 C   0  0  0  0  0  0  0  0  0  0  0  0
    4.6623   -3.3934    0.0000 C   0  0  0  0  0  0  0  0  0  0  0  0
    3.6004   -2.4373    0.0000 C   0  0  0  0  0  0  0  0  0  0  0  0
    3.3454   -1.6527    0.0000 C   0  0  0  0  0  0  0  0  0  0  0  0
  1  2  1  0  0  0  0
  2  3  2  0  0  0  0
  3  4  1  0  0  0  0
  4  5  1  0  0  0  0
  5  6  2  0  0  0  0
  2  6  1  0  0  0  0
  6  7  1  0  0  0  0
  7  8  1  0  0  0  0
  8  9  2  0  0  0  0
  9 10  1  0  0  0  0
 10 11  2  0  0  0  0
 11 12  1  0  0  0  0
 12 13  2  0  0  0  0
  8 13  1  0  0  0  0
 11 14  1  0  0  0  0
 14 15  1  0  0  0  0
 14 16  2  0  0  0  0
  7 17  1  0  0  0  0
 17 18  2  0  0  0  0
 18 19  1  0  0  0  0
 19 20  1  0  0  0  0
 20 21  1  0  0  0  0
 21 22  1  0  0  0  0
 17 22  1  0  0  0  0
 22 23  2  0  0  0  0
 18 24  1  0  0  0  0
  5 24  1  0  0  0  0
 24 25  1  0  0  0  0
 25 26  2  0  0  0  0
 27 25  1  1  0  0  0
 27 28  1  0  0  0  0
 28 29  1  0  0  0  0
 30 29  1  0  0  0  0
 30 31  1  6  0  0  0
 30 32  1  0  0  0  0
 32 33  1  0  0  0  0
 27 33  1  0  0  0  0
  4 34  1  0  0  0  0
 34 35  2  0  0  0  0
 35 36  1  0  0  0  0
 36 37  2  0  0  0  0
 37 38  1  0  0  0  0
 37 39  1  0  0  0  0
 39 40  2  0  0  0  0
 34 40  1  0  0  0  0
M  END
> <ID>
CPD_1557

$$$$
CPD_1562
  Mrv1822 09091914012D          

 32 35  0  0  0  0            999 V2000
   -4.3692    1.9465    0.0000 N   0  0  0  0  0  0  0  0  0  0  0  0
   -3.7018    1.4615    0.0000 C   0  0  0  0  0  0  0  0  0  0  0  0
   -2.9481    1.7971    0.0000 C   0  0  0  0  0  0  0  0  0  0  0  0
   -2.2807    1.3122    0.0000 C   0  0  0  0  0  0  0  0  0  0  0  0
   -1.5270    1.6477    0.0000 Br  0  0  0  0  0  0  0  0  0  0  0  0
   -2.3669    0.4917    0.0000 C   0  0  0  0  0  0  0  0  0  0  0  0
   -3.1206    0.1561    0.0000 N   0  0  0  0  0  0  0  0  0  0  0  0
   -3.7880    0.6410    0.0000 C   0  0  0  0  0  0  0  0  0  0  0  0
   -4.5417    0.3055    0.0000 N   0  0  0  0  0  0  0  0  0  0  0  0
   -5.2091    0.7904    0.0000 C   0  0  0  0  0  0  0  0  0  0  0  0
   -5.9628    0.4549    0.0000 C   0  0  0  0  0  0  0  0  0  0  0  0
   -6.6302    0.9398    0.0000 O   0  0  0  0  0  0  0  0  0  0  0  0
   -4.6279   -0.5150    0.0000 C   0  0  0  0  0  0  0  0  0  0  0  0
   -5.3816   -0.8505    0.0000 O   0  0  0  0  0  0  0  0  0  0  0  0
   -3.9605   -0.9999    0.0000 C   0  0  0  0  0  0  0  0  0  0  0  0
   -3.1759   -0.7450    0.0000 C   0  0  0  0  0  0  0  0  0  0  0  0
   -2.6909   -1.4124    0.0000 N   0  0  0  0  0  0  0  0  0  0  0  0
   -1.8659   -1.4124    0.0000 C   0  0  0  0  0  0  0  0  0  0  0  0
   -1.4534   -0.6979    0.0000 C   0  0  0  0  0  0  0  0  0  0  0  0
   -0.6284   -0.6979    0.0000 N   0  0  0  0  0  0  0  0  0  0  0  0
   -0.1435   -1.3654    0.0000 C   0  0  0  0  0  0  0  0  0  0  0  0
   -0.3984   -2.1500    0.0000 O   0  0  0  0  0  0  0  0  0  0  0  0
    0.6411   -1.1104    0.0000 C   0  0  0  0  0  0  0  0  0  0  0  0
    0.6411   -0.2854    0.0000 C   0  0  0  0  0  0  0  0  0  0  0  0
    1.3556    0.1271    0.0000 C   0  0  0  0  0  0  0  0  0  0  0  0
    2.0701   -0.2854    0.0000 C   0  0  0  0  0  0  0  0  0  0  0  0
    2.0701   -1.1104    0.0000 C   0  0  0  0  0  0  0  0  0  0  0  0
    1.3556   -1.5229    0.0000 C   0  0  0  0  0  0  0  0  0  0  0  0
   -0.1435   -0.0305    0.0000 C   0  0  0  0  0  0  0  0  0  0  0  0
   -0.3984    0.7541    0.0000 O   0  0  0  0  0  0  0  0  0  0  0  0
   -3.1759   -2.0799    0.0000 N   0  0  0  0  0  0  0  0  0  0  0  0
   -3.9605   -1.8249    0.0000 N   0  0  0  0  0  0  0  0  0  0  0  0
  1  2  1  0  0  0  0
  2  3  2  0  0  0  0
  3  4  1  0  0  0  0
  4  5  1  0  0  0  0
  4  6  2  0  0  0  0
  6  7  1  0  0  0  0
  7  8  2  0  0  0  0
  2  8  1  0  0  0  0
  8  9  1  0  0  0  0
  9 10  1  0  0  0  0
 10 11  1  0  0  0  0
 11 12  1  0  0  0  0
  9 13  1  0  0  0  0
 13 14  2  0  0  0  0
 13 15  1  0  0  0  0
 15 16  2  0  0  0  0
 16 17  1  0  0  0  0
 17 18  1  0  0  0  0
 18 19  1  0  0  0  0
 19 20  1  0  0  0  0
 20 21  1  0  0  0  0
 21 22  2  0  0  0  0
 21 23  1  0  0  0  0
 23 24  2  0  0  0  0
 24 25  1  0  0  0  0
 25 26  2  0  0  0  0
 26 27  1  0  0  0  0
 27 28  2  0  0  0  0
 23 28  1  0  0  0  0
 24 29  1  0  0  0  0
 20 29  1  0  0  0  0
 29 30  2  0  0  0  0
 17 31  1  0  0  0  0
 31 32  2  0  0  0  0
 15 32  1  0  0  0  0
M  END
> <ID>
CPD_1562

$$$$
CPD_1567
  Mrv1822 09091914012D          

 21 22  0  0  0  0            999 V2000
   -1.3222    0.6402    0.0000 N   0  0  0  0  0  0  0  0  0  0  0  0
   -1.3222   -0.1848    0.0000 C   0  0  0  0  0  0  0  0  0  0  0  0
   -1.9897   -0.6697    0.0000 C   0  0  0  0  0  0  0  0  0  0  0  0
   -1.7347   -1.4544    0.0000 S   0  0  0  0  0  0  0  0  0  0  0  0
   -0.9097   -1.4544    0.0000 C   0  0  0  0  0  0  0  0  0  0  0  0
   -0.4248   -2.1218    0.0000 Br  0  0  0  0  0  0  0  0  0  0  0  0
   -0.6548   -0.6697    0.0000 C   0  0  0  0  0  0  0  0  0  0  0  0
   -2.7743   -0.4148    0.0000 C   0  0  0  0  0  0  0  0  0  0  0  0
   -2.9458    0.3922    0.0000 O   0  0  0  0  0  0  0  0  0  0  0  0
   -3.3874   -0.9668    0.0000 N   0  0  0  0  0  0  0  0  0  0  0  0
   -3.2159   -1.7738    0.0000 C   0  0  0  0  0  0  0  0  0  0  0  0
   -2.4312   -2.0287    0.0000 C   0  0  0  0  0  0  0  0  0  0  0  0
   -2.2597   -2.8357    0.0000 C   0  0  0  0  0  0  0  0  0  0  0  0
   -1.4751   -3.0907    0.0000 Br  0  0  0  0  0  0  0  0  0  0  0  0
   -2.8728   -3.3878    0.0000 C   0  0  0  0  0  0  0  0  0  0  0  0
   -3.6574   -3.1328    0.0000 N   0  0  0  0  0  0  0  0  0  0  0  0
   -3.8290   -2.3258    0.0000 C   0  0  0  0  0  0  0  0  0  0  0  0
   -4.6136   -2.0709    0.0000 N   0  0  0  0  0  0  0  0  0  0  0  0
   -5.2267   -2.6229    0.0000 C   0  0  0  0  0  0  0  0  0  0  0  0
   -6.0113   -2.3680    0.0000 C   0  0  0  0  0  0  0  0  0  0  0  0
   -6.6244   -2.9200    0.0000 O   0  0  0  0  0  0  0  0  0  0  0  0
  1  2  1  0  0  0  0
  2  3  2  0  0  0  0
  3  4  1  0  0  0  0
  4  5  1  0  0  0  0
  5  6  1  0  0  0  0
  5  7  2  0  0  0  0
  2  7  1  0  0  0  0
  3  8  1  0  0  0  0
  8  9  2  0  0  0  0
  8 10  1  0  0  0  0
 10 11  1  0  0  0  0
 11 12  2  0  0  0  0
 12 13  1  0  0  0  0
 13 14  1  0  0  0  0
 13 15  2  0  0  0  0
 15 16  1  0  0  0  0
 16 17  2  0  0  0  0
 11 17  1  0  0  0  0
 17 18  1  0  0  0  0
 18 19  1  0  0  0  0
 19 20  1  0  0  0  0
 20 21  1  0  0  0  0
M  END
> <ID>
CPD_1567

$$$$
CPD_1572
  Mrv1822 09091914012D          

 24 25  0  0  0  0            999 V2000
    0.7145   -1.2375    0.0000 C   0  0  0  0  0  0  0  0  0  0  0  0
    1.4289   -0.8250    0.0000 C   0  0  0  0  0  0  0  0  0  0  0  0
    1.4289    0.0000    0.0000 O   0  0  0  0  0  0  0  0  0  0  0  0
    2.1434   -1.2375    0.0000 N   0  0  0  0  0  0  0  0  0  0  0  0
    2.1434   -2.0625    0.0000 C   0  0  0  0  0  0  0  0  0  0  0  0
    2.8579   -2.4750    0.0000 C   0  0  0  0  0  0  0  0  0  0  0  0
    3.5724   -2.0625    0.0000 C   0  0  0  0  0  0  0  0  0  0  0  0
    2.8579   -3.3000    0.0000 C   0  0  0  0  0  0  0  0  0  0  0  0
    2.1434   -3.7125    0.0000 C   0  0  0  0  0  0  0  0  0  0  0  0
    1.4289   -3.3000    0.0000 C   0  0  0  0  0  0  0  0  0  0  0  0
    1.4289   -2.4750    0.0000 C   0  0  0  0  0  0  0  0  0  0  0  0
    2.1434   -4.5375    0.0000 C   0  0  0  0  0  0  0  0  0  0  0  0
    1.4289   -4.9500    0.0000 O   0  0  0  0  0  0  0  0  0  0  0  0
    2.8579   -4.9500    0.0000 O   0  0  0  0  0  0  0  0  0  0  0  0
    2.8579   -0.8250    0.0000 S   0  0  0  0  0  0  0  0  0  0  0  0
    3.2704   -1.5395    0.0000 O   0  0  0  0  0  0  0  0  0  0  0  0
    2.4454   -0.1105    0.0000 O   0  0  0  0  0  0  0  0  0  0  0  0
    3.5724   -0.4125    0.0000 C   0  0  0  0  0  0  0  0  0  0  0  0
    3.5724    0.4125    0.0000 C   0  0  0  0  0  0  0  0  0  0  0  0
    4.2868    0.8250    0.0000 C   0  0  0  0  0  0  0  0  0  0  0  0
    5.0013    0.4125    0.0000 C   0  0  0  0  0  0  0  0  0  0  0  0
    5.7158    0.8250    0.0000 C   0  0  0  0  0  0  0  0  0  0  0  0
    5.0013   -0.4125    0.0000 C   0  0  0  0  0  0  0  0  0  0  0  0
    4.2868   -0.8250    0.0000 C   0  0  0  0  0  0  0  0  0  0  0  0
  1  2  1  0  0  0  0
  2  3  2  0  0  0  0
  2  4  1  0  0  0  0
  4  5  1  0  0  0  0
  5  6  2  0  0  0  0
  6  7  1  0  0  0  0
  6  8  1  0  0  0  0
  8  9  2  0  0  0  0
  9 10  1  0  0  0  0
 10 11  2  0  0  0  0
  5 11  1  0  0  0  0
  9 12  1  0  0  0  0
 12 13  1  0  0  0  0
 12 14  2  0  0  0  0
  4 15  1  0  0  0  0
 15 16  2  0  0  0  0
 15 17  2  0  0  0  0
 15 18  1  0  0  0  0
 18 19  2  0  0  0  0
 19 20  1  0  0  0  0
 20 21  2  0  0  0  0
 21 22  1  0  0  0  0
 21 23  1  0  0  0  0
 23 24  2  0  0  0  0
 18 24  1  0  0  0  0
M  END
> <ID>
CPD_1572

$$$$
CPD_1577
  Mrv1822 09091914012D          

 30 32  0  0  0  0            999 V2000
    2.8579   -0.8250    0.0000 C   0  0  0  0  0  0  0  0  0  0  0  0
    2.8579   -1.6500    0.0000 C   0  0  0  0  0  0  0  0  0  0  0  0
    3.5724   -2.0625    0.0000 C   0  0  0  0  0  0  0  0  0  0  0  0
    3.5724   -2.8875    0.0000 C   0  0  0  0  0  0  0  0  0  0  0  0
    2.8579   -3.3000    0.0000 C   0  0  0  0  0  0  0  0  0  0  0  0
    2.1434   -2.8875    0.0000 C   0  0  0  0  0  0  0  0  0  0  0  0
    2.1434   -2.0625    0.0000 C   0  0  0  0  0  0  0  0  0  0  0  0
    2.8579   -4.1250    0.0000 S   0  0  0  0  0  0  0  0  0  0  0  0
    2.0329   -4.1250    0.0000 O   0  0  0  0  0  0  0  0  0  0  0  0
    3.6829   -4.1250    0.0000 O   0  0  0  0  0  0  0  0  0  0  0  0
    2.8579   -4.9500    0.0000 N   0  0  0  0  0  0  0  0  0  0  0  0
    3.5724   -5.3625    0.0000 C   0  0  0  0  0  0  0  0  0  0  0  0
    3.5724   -6.1875    0.0000 O   0  0  0  0  0  0  0  0  0  0  0  0
    4.2868   -4.9500    0.0000 C   0  0  0  0  0  0  0  0  0  0  0  0
    5.0013   -5.3625    0.0000 C   0  0  0  0  0  0  0  0  0  0  0  0
    5.0013   -6.1875    0.0000 C   0  0  0  0  0  0  0  0  0  0  0  0
    5.7158   -4.9500    0.0000 N   0  0  0  0  0  0  0  0  0  0  0  0
    5.7158   -4.1250    0.0000 C   0  0  0  0  0  0  0  0  0  0  0  0
    5.0013   -3.7125    0.0000 C   0  0  0  0  0  0  0  0  0  0  0  0
    4.2868   -4.1250    0.0000 C   0  0  0  0  0  0  0  0  0  0  0  0
    2.1434   -5.3625    0.0000 C   0  0  0  0  0  0  0  0  0  0  0  0
    2.1434   -6.1875    0.0000 C   0  0  0  0  0  0  0  0  0  0  0  0
    2.8579   -6.6000    0.0000 C   0  0  0  0  0  0  0  0  0  0  0  0
    1.4289   -6.6000    0.0000 C   0  0  0  0  0  0  0  0  0  0  0  0
    0.7145   -6.1875    0.0000 C   0  0  0  0  0  0  0  0  0  0  0  0
    0.7145   -5.3625    0.0000 C   0  0  0  0  0  0  0  0  0  0  0  0
    1.4289   -4.9500    0.0000 C   0  0  0  0  0  0  0  0  0  0  0  0
   -0.0000   -6.6000    0.0000 C   0  0  0  0  0  0  0  0  0  0  0  0
   -0.0000   -7.4250    0.0000 O   0  0  0  0  0  0  0  0  0  0  0  0
   -0.7145   -6.1875    0.0000 O   0  0  0  0  0  0  0  0  0  0  0  0
  1  2  1  0  0  0  0
  2  3  2  0  0  0  0
  3  4  1  0  0  0  0
  4  5  2  0  0  0  0
  5  6  1  0  0  0  0
  6  7  2  0  0  0  0
  2  7  1  0  0  0  0
  5  8  1  0  0  0  0
  8  9  2  0  0  0  0
  8 10  2  0  0  0  0
  8 11  1  0  0  0  0
 11 12  1  0  0  0  0
 12 13  2  0  0  0  0
 12 14  1  0  0  0  0
 14 15  2  0  0  0  0
 15 16  1  0  0  0  0
 15 17  1  0  0  0  0
 17 18  2  0  0  0  0
 18 19  1  0  0  0  0
 19 20  2  0  0  0  0
 14 20  1  0  0  0  0
 11 21  1  0  0  0  0
 21 22  2  0  0  0  0
 22 23  1  0  0  0  0
 22 24  1  0  0  0  0
 24 25  2  0  0  0  0
 25 26  1  0  0  0  0
 26 27  2  0  0  0  0
 21 27  1  0  0  0  0
 25 28  1  0  0  0  0
 28 29  1  0  0  0  0
 28 30  2  0  0  0  0
M  END
> <ID>
CPD_1577

$$$$
CPD_1582
  Mrv1822 09091914012D          

 33 35  0  0  0  0            999 V2000
   -2.1730   -1.7309    0.0000 C   0  0  0  0  0  0  0  0  0  0  0  0
   -1.3480   -1.7309    0.0000 O   0  0  0  0  0  0  0  0  0  0  0  0
   -0.9355   -2.4454    0.0000 C   0  0  0  0  0  0  0  0  0  0  0  0
   -0.1105   -2.4454    0.0000 C   0  0  0  0  0  0  0  0  0  0  0  0
    0.3020   -1.7309    0.0000 C   0  0  0  0  0  0  0  0  0  0  0  0
   -0.1105   -1.0164    0.0000 C   0  0  0  0  0  0  0  0  0  0  0  0
   -0.9355   -1.0164    0.0000 O   0  0  0  0  0  0  0  0  0  0  0  0
    0.3020   -0.3020    0.0000 N   0  0  0  0  0  0  0  0  0  0  0  0
   -0.1105    0.4125    0.0000 C   0  0  0  0  0  0  0  0  0  0  0  0
    0.3020    1.1270    0.0000 C   0  0  0  0  0  0  0  0  0  0  0  0
    1.1270    1.1270    0.0000 C   0  0  0  0  0  0  0  0  0  0  0  0
    1.5395    0.4125    0.0000 C   0  0  0  0  0  0  0  0  0  0  0  0
    1.9520    1.1270    0.0000 C   0  0  0  0  0  0  0  0  0  0  0  0
    2.7770    1.1270    0.0000 O   0  0  0  0  0  0  0  0  0  0  0  0
    3.1895    0.4125    0.0000 C   0  0  0  0  0  0  0  0  0  0  0  0
    2.7770   -0.3020    0.0000 C   0  0  0  0  0  0  0  0  0  0  0  0
    1.9520   -0.3020    0.0000 N   0  0  0  0  0  0  0  0  0  0  0  0
    1.5395   -1.0164    0.0000 C   0  0  0  0  0  0  0  0  0  0  0  0
    0.7145   -1.0164    0.0000 O   0  0  0  0  0  0  0  0  0  0  0  0
    1.9520   -1.7309    0.0000 O   0  0  0  0  0  0  0  0  0  0  0  0
    2.7770   -1.7309    0.0000 C   0  0  0  0  0  0  0  0  0  0  0  0
    3.6020   -1.7309    0.0000 C   0  0  0  0  0  0  0  0  0  0  0  0
    2.7770   -2.5559    0.0000 C   0  0  0  0  0  0  0  0  0  0  0  0
    2.7770   -0.9059    0.0000 C   0  0  0  0  0  0  0  0  0  0  0  0
    1.1270   -0.3020    0.0000 C   0  0  0  0  0  0  0  0  0  0  0  0
    0.3020   -3.1599    0.0000 C   0  0  0  0  0  0  0  0  0  0  0  0
   -0.1105   -3.8743    0.0000 C   0  0  0  0  0  0  0  0  0  0  0  0
   -0.9355   -3.8743    0.0000 C   0  0  0  0  0  0  0  0  0  0  0  0
   -1.3480   -3.1599    0.0000 C   0  0  0  0  0  0  0  0  0  0  0  0
    1.1270   -3.1599    0.0000 C   0  0  0  0  0  0  0  0  0  0  0  0
    1.9520   -3.1599    0.0000 F   0  0  0  0  0  0  0  0  0  0  0  0
    1.1270   -3.9849    0.0000 F   0  0  0  0  0  0  0  0  0  0  0  0
    1.1270   -2.3349    0.0000 F   0  0  0  0  0  0  0  0  0  0  0  0
  1  2  1  0  0  0  0
  2  3  1  0  0  0  0
  3  4  2  0  0  0  0
  4  5  1  0  0  0  0
  5  6  1  0  0  0  0
  6  7  2  0  0  0  0
  6  8  1  0  0  0  0
  8  9  1  0  0  0  0
  9 10  1  0  0  0  0
 10 11  1  0  0  0  0
 11 12  1  0  0  0  0
 12 13  1  0  0  0  0
 13 14  1  0  0  0  0
 14 15  1  0  0  0  0
 15 16  1  0  0  0  0
 16 17  1  0  0  0  0
 12 17  1  0  0  0  0
 17 18  1  0  0  0  0
 18 19  2  0  0  0  0
 18 20  1  0  0  0  0
 20 21  1  0  0  0  0
 21 22  1  0  0  0  0
 21 23  1  0  0  0  0
 21 24  1  0  0  0  0
 12 25  1  0  0  0  0
  8 25  1  0  0  0  0
  4 26  1  0  0  0  0
 26 27  2  0  0  0  0
 27 28  1  0  0  0  0
 28 29  2  0  0  0  0
  3 29  1  0  0  0  0
 26 30  1  0  0  0  0
 30 31  1  0  0  0  0
 30 32  1  0  0  0  0
 30 33  1  0  0  0  0
M  END
> <ID>
CPD_1582

$$$$
CPD_1587
  Mrv1822 09091914012D          

 30 32  0  0  0  0            999 V2000
    1.9520   -3.1599    0.0000 C   0  0  0  0  0  0  0  0  0  0  0  0
    1.5395   -2.4454    0.0000 C   0  0  0  0  0  0  0  0  0  0  0  0
    2.2539   -2.0329    0.0000 C   0  0  0  0  0  0  0  0  0  0  0  0
    0.8250   -2.8579    0.0000 C   0  0  0  0  0  0  0  0  0  0  0  0
    1.1270   -1.7309    0.0000 O   0  0  0  0  0  0  0  0  0  0  0  0
    1.5395   -1.0164    0.0000 C   0  0  0  0  0  0  0  0  0  0  0  0
    2.3645   -1.0164    0.0000 O   0  0  0  0  0  0  0  0  0  0  0  0
    1.1270   -0.3020    0.0000 N   0  0  0  0  0  0  0  0  0  0  0  0
    0.3020   -0.3020    0.0000 C   0  0  0  0  0  0  0  0  0  0  0  0
   -0.1105    0.4125    0.0000 C   0  0  0  0  0  0  0  0  0  0  0  0
    0.3020    1.1270    0.0000 O   0  0  0  0  0  0  0  0  0  0  0  0
    1.1270    1.1270    0.0000 C   0  0  0  0  0  0  0  0  0  0  0  0
    1.5395    0.4125    0.0000 C   0  0  0  0  0  0  0  0  0  0  0  0
    1.9520    1.1270    0.0000 C   0  0  0  0  0  0  0  0  0  0  0  0
    2.7770    1.1270    0.0000 C   0  0  0  0  0  0  0  0  0  0  0  0
    3.1895    0.4125    0.0000 C   0  0  0  0  0  0  0  0  0  0  0  0
    2.7770   -0.3020    0.0000 N   0  0  0  0  0  0  0  0  0  0  0  0
    1.9520   -0.3020    0.0000 C   0  0  0  0  0  0  0  0  0  0  0  0
    3.1895   -1.0164    0.0000 C   0  0  0  0  0  0  0  0  0  0  0  0
    4.0145   -1.0164    0.0000 O   0  0  0  0  0  0  0  0  0  0  0  0
    2.7770   -1.7309    0.0000 C   0  0  0  0  0  0  0  0  0  0  0  0
    3.1895   -2.4454    0.0000 C   0  0  0  0  0  0  0  0  0  0  0  0
    4.0145   -2.4454    0.0000 C   0  0  0  0  0  0  0  0  0  0  0  0
    4.4270   -1.7309    0.0000 C   0  0  0  0  0  0  0  0  0  0  0  0
    5.2520   -1.7309    0.0000 C   0  0  0  0  0  0  0  0  0  0  0  0
    5.6645   -1.0164    0.0000 Cl  0  0  0  0  0  0  0  0  0  0  0  0
    5.6645   -2.4454    0.0000 C   0  0  0  0  0  0  0  0  0  0  0  0
    6.4895   -2.4454    0.0000 Cl  0  0  0  0  0  0  0  0  0  0  0  0
    5.2520   -3.1599    0.0000 C   0  0  0  0  0  0  0  0  0  0  0  0
    4.4270   -3.1599    0.0000 C   0  0  0  0  0  0  0  0  0  0  0  0
  1  2  1  0  0  0  0
  2  3  1  0  0  0  0
  2  4  1  0  0  0  0
  2  5  1  0  0  0  0
  5  6  1  0  0  0  0
  6  7  2  0  0  0  0
  6  8  1  0  0  0  0
  8  9  1  0  0  0  0
  9 10  1  0  0  0  0
 10 11  1  0  0  0  0
 11 12  1  0  0  0  0
 12 13  1  0  0  0  0
  8 13  1  0  0  0  0
 13 14  1  0  0  0  0
 14 15  1  0  0  0  0
 15 16  1  0  0  0  0
 16 17  1  0  0  0  0
 17 18  1  0  0  0  0
 13 18  1  0  0  0  0
 17 19  1  0  0  0  0
 19 20  2  0  0  0  0
 19 21  1  0  0  0  0
 21 22  1  0  0  0  0
 22 23  1  0  0  0  0
 23 24  2  0  0  0  0
 24 25  1  0  0  0  0
 25 26  1  0  0  0  0
 25 27  2  0  0  0  0
 27 28  1  0  0  0  0
 27 29  1  0  0  0  0
 29 30  2  0  0  0  0
 23 30  1  0  0  0  0
M  END
> <ID>
CPD_1587

$$$$
CPD_1592
  Mrv1822 09091914012D          

 29 31  0  0  0  0            999 V2000
    1.9520   -3.1599    0.0000 C   0  0  0  0  0  0  0  0  0  0  0  0
    1.5395   -2.4454    0.0000 C   0  0  0  0  0  0  0  0  0  0  0  0
    2.2539   -2.0329    0.0000 C   0  0  0  0  0  0  0  0  0  0  0  0
    0.8250   -2.8579    0.0000 C   0  0  0  0  0  0  0  0  0  0  0  0
    1.1270   -1.7309    0.0000 O   0  0  0  0  0  0  0  0  0  0  0  0
    1.5395   -1.0164    0.0000 C   0  0  0  0  0  0  0  0  0  0  0  0
    2.3645   -1.0164    0.0000 O   0  0  0  0  0  0  0  0  0  0  0  0
    1.1270   -0.3020    0.0000 N   0  0  0  0  0  0  0  0  0  0  0  0
    0.3020   -0.3020    0.0000 C   0  0  0  0  0  0  0  0  0  0  0  0
   -0.1105    0.4125    0.0000 C   0  0  0  0  0  0  0  0  0  0  0  0
    0.3020    1.1270    0.0000 O   0  0  0  0  0  0  0  0  0  0  0  0
    1.1270    1.1270    0.0000 C   0  0  0  0  0  0  0  0  0  0  0  0
    1.5395    0.4125    0.0000 C   0  0  0  0  0  0  0  0  0  0  0  0
    1.9520    1.1270    0.0000 C   0  0  0  0  0  0  0  0  0  0  0  0
    2.7770    1.1270    0.0000 C   0  0  0  0  0  0  0  0  0  0  0  0
    3.1895    0.4125    0.0000 C   0  0  0  0  0  0  0  0  0  0  0  0
    2.7770   -0.3020    0.0000 N   0  0  0  0  0  0  0  0  0  0  0  0
    1.9520   -0.3020    0.0000 C   0  0  0  0  0  0  0  0  0  0  0  0
    3.1895   -1.0164    0.0000 C   0  0  0  0  0  0  0  0  0  0  0  0
    2.7770   -1.7309    0.0000 O   0  0  0  0  0  0  0  0  0  0  0  0
    4.0145   -1.0164    0.0000 C   0  0  0  0  0  0  0  0  0  0  0  0
    4.4270   -1.7309    0.0000 C   0  0  0  0  0  0  0  0  0  0  0  0
    5.2520   -1.7309    0.0000 C   0  0  0  0  0  0  0  0  0  0  0  0
    5.6645   -2.4454    0.0000 C   0  0  0  0  0  0  0  0  0  0  0  0
    5.2520   -3.1599    0.0000 N   0  0  0  0  0  0  0  0  0  0  0  0
    5.6645   -1.0164    0.0000 C   0  0  0  0  0  0  0  0  0  0  0  0
    5.2520   -0.3020    0.0000 C   0  0  0  0  0  0  0  0  0  0  0  0
    4.4270   -0.3020    0.0000 C   0  0  0  0  0  0  0  0  0  0  0  0
    4.0145    0.4125    0.0000 O   0  0  0  0  0  0  0  0  0  0  0  0
  1  2  1  0  0  0  0
  2  3  1  0  0  0  0
  2  4  1  0  0  0  0
  2  5  1  0  0  0  0
  5  6  1  0  0  0  0
  6  7  2  0  0  0  0
  6  8  1  0  0  0  0
  8  9  1  0  0  0  0
  9 10  1  0  0  0  0
 10 11  1  0  0  0  0
 11 12  1  0  0  0  0
 12 13  1  0  0  0  0
  8 13  1  0  0  0  0
 13 14  1  0  0  0  0
 14 15  1  0  0  0  0
 15 16  1  0  0  0  0
 16 17  1  0  0  0  0
 17 18  1  0  0  0  0
 13 18  1  0  0  0  0
 17 19  1  0  0  0  0
 19 20  2  0  0  0  0
 19 21  1  0  0  0  0
 21 22  2  0  0  0  0
 22 23  1  0  0  0  0
 23 24  1  0  0  0  0
 24 25  1  0  0  0  0
 23 26  2  0  0  0  0
 26 27  1  0  0  0  0
 27 28  2  0  0  0  0
 21 28  1  0  0  0  0
 28 29  1  0  0  0  0
M  END
> <ID>
CPD_1592

$$$$
CPD_1597
  Mrv1822 09091914012D          

 34 37  0  0  0  0            999 V2000
    0.8570    3.9849    0.0000 C   0  0  0  0  0  0  0  0  0  0  0  0
    1.2695    3.2704    0.0000 C   0  0  0  0  0  0  0  0  0  0  0  0
    0.5551    2.8579    0.0000 C   0  0  0  0  0  0  0  0  0  0  0  0
    1.9840    3.6829    0.0000 C   0  0  0  0  0  0  0  0  0  0  0  0
    1.6820    2.5559    0.0000 O   0  0  0  0  0  0  0  0  0  0  0  0
    1.2695    1.8414    0.0000 C   0  0  0  0  0  0  0  0  0  0  0  0
    0.4445    1.8414    0.0000 O   0  0  0  0  0  0  0  0  0  0  0  0
    1.6820    1.1270    0.0000 N   0  0  0  0  0  0  0  0  0  0  0  0
    2.5070    1.1270    0.0000 C   0  0  0  0  0  0  0  0  0  0  0  0
    2.9195    0.4125    0.0000 C   0  0  0  0  0  0  0  0  0  0  0  0
    2.5070   -0.3020    0.0000 O   0  0  0  0  0  0  0  0  0  0  0  0
    1.6820   -0.3020    0.0000 C   0  0  0  0  0  0  0  0  0  0  0  0
    1.2695    0.4125    0.0000 C   0  0  0  0  0  0  0  0  0  0  0  0
    0.7846   -0.2549    0.0000 C   0  0  0  0  0  0  0  0  0  0  0  0
    0.0000   -0.0000    0.0000 C   0  0  0  0  0  0  0  0  0  0  0  0
   -0.0000    0.8250    0.0000 N   0  0  0  0  0  0  0  0  0  0  0  0
    0.7846    1.0799    0.0000 C   0  0  0  0  0  0  0  0  0  0  0  0
   -0.6674    1.3099    0.0000 C   0  0  0  0  0  0  0  0  0  0  0  0
   -0.5812    2.1304    0.0000 O   0  0  0  0  0  0  0  0  0  0  0  0
   -1.4211    0.9744    0.0000 C   0  0  0  0  0  0  0  0  0  0  0  0
   -1.5074    0.1539    0.0000 C   0  0  0  0  0  0  0  0  0  0  0  0
   -2.2610   -0.1817    0.0000 C   0  0  0  0  0  0  0  0  0  0  0  0
   -2.9285    0.3032    0.0000 C   0  0  0  0  0  0  0  0  0  0  0  0
   -3.6821   -0.0323    0.0000 N   0  0  0  0  0  0  0  0  0  0  0  0
   -3.7684   -0.8528    0.0000 C   0  0  0  0  0  0  0  0  0  0  0  0
   -3.1009   -1.3377    0.0000 O   0  0  0  0  0  0  0  0  0  0  0  0
   -4.5221   -1.1883    0.0000 C   0  0  0  0  0  0  0  0  0  0  0  0
   -4.6936   -1.9953    0.0000 C   0  0  0  0  0  0  0  0  0  0  0  0
   -5.5141   -2.0816    0.0000 C   0  0  0  0  0  0  0  0  0  0  0  0
   -5.8496   -1.3279    0.0000 C   0  0  0  0  0  0  0  0  0  0  0  0
   -5.2365   -0.7758    0.0000 O   0  0  0  0  0  0  0  0  0  0  0  0
   -2.8422    1.1237    0.0000 C   0  0  0  0  0  0  0  0  0  0  0  0
   -2.0886    1.4593    0.0000 C   0  0  0  0  0  0  0  0  0  0  0  0
   -2.0023    2.2798    0.0000 O   0  0  0  0  0  0  0  0  0  0  0  0
  1  2  1  0  0  0  0
  2  3  1  0  0  0  0
  2  4  1  0  0  0  0
  2  5  1  0  0  0  0
  5  6  1  0  0  0  0
  6  7  2  0  0  0  0
  6  8  1  0  0  0  0
  8  9  1  0  0  0  0
  9 10  1  0  0  0  0
 10 11  1  0  0  0  0
 11 12  1  0  0  0  0
 12 13  1  0  0  0  0
  8 13  1  0  0  0  0
 13 14  1  0  0  0  0
 14 15  1  0  0  0  0
 15 16  1  0  0  0  0
 16 17  1  0  0  0  0
 13 17  1  0  0  0  0
 16 18  1  0  0  0  0
 18 19  2  0  0  0  0
 18 20  1  0  0  0  0
 20 21  2  0  0  0  0
 21 22  1  0  0  0  0
 22 23  2  0  0  0  0
 23 24  1  0  0  0  0
 24 25  1  0  0  0  0
 25 26  2  0  0  0  0
 25 27  1  0  0  0  0
 27 28  2  0  0  0  0
 28 29  1  0  0  0  0
 29 30  2  0  0  0  0
 30 31  1  0  0  0  0
 27 31  1  0  0  0  0
 23 32  1  0  0  0  0
 32 33  2  0  0  0  0
 20 33  1  0  0  0  0
 33 34  1  0  0  0  0
M  END
> <ID>
CPD_1597

$$$$
CPD_1602
  Mrv1822 09091914012D          

 36 39  0  0  0  0            999 V2000
   -7.1056   -0.7468    0.0000 C   0  0  0  0  0  0  0  0  0  0  0  0
   -6.3519   -1.0824    0.0000 O   0  0  0  0  0  0  0  0  0  0  0  0
   -5.6845   -0.5975    0.0000 C   0  0  0  0  0  0  0  0  0  0  0  0
   -5.7707    0.2230    0.0000 O   0  0  0  0  0  0  0  0  0  0  0  0
   -4.9308   -0.9330    0.0000 C   0  0  0  0  0  0  0  0  0  0  0  0
   -4.2633   -0.4481    0.0000 C   0  0  0  0  0  0  0  0  0  0  0  0
   -4.3496    0.3724    0.0000 F   0  0  0  0  0  0  0  0  0  0  0  0
   -3.5097   -0.7837    0.0000 C   0  0  0  0  0  0  0  0  0  0  0  0
   -3.4234   -1.6041    0.0000 C   0  0  0  0  0  0  0  0  0  0  0  0
   -4.0909   -2.0891    0.0000 C   0  0  0  0  0  0  0  0  0  0  0  0
   -4.8445   -1.7535    0.0000 C   0  0  0  0  0  0  0  0  0  0  0  0
   -2.8422   -0.2987    0.0000 C   0  0  0  0  0  0  0  0  0  0  0  0
   -2.9285    0.5218    0.0000 C   0  0  0  0  0  0  0  0  0  0  0  0
   -2.2610    1.0067    0.0000 C   0  0  0  0  0  0  0  0  0  0  0  0
   -1.5074    0.6711    0.0000 C   0  0  0  0  0  0  0  0  0  0  0  0
   -1.4211   -0.1494    0.0000 C   0  0  0  0  0  0  0  0  0  0  0  0
   -2.0886   -0.6343    0.0000 C   0  0  0  0  0  0  0  0  0  0  0  0
   -0.6674   -0.4849    0.0000 C   0  0  0  0  0  0  0  0  0  0  0  0
   -0.5812   -1.3054    0.0000 O   0  0  0  0  0  0  0  0  0  0  0  0
   -0.0000    0.0000    0.0000 N   0  0  0  0  0  0  0  0  0  0  0  0
   -0.0000    0.8250    0.0000 C   0  0  0  0  0  0  0  0  0  0  0  0
    0.7846    1.0799    0.0000 C   0  0  0  0  0  0  0  0  0  0  0  0
    1.2695    0.4125    0.0000 C   0  0  0  0  0  0  0  0  0  0  0  0
    0.7846   -0.2549    0.0000 C   0  0  0  0  0  0  0  0  0  0  0  0
    1.6820    1.1270    0.0000 C   0  0  0  0  0  0  0  0  0  0  0  0
    2.5070    1.1270    0.0000 O   0  0  0  0  0  0  0  0  0  0  0  0
    2.9195    0.4125    0.0000 C   0  0  0  0  0  0  0  0  0  0  0  0
    2.5070   -0.3020    0.0000 C   0  0  0  0  0  0  0  0  0  0  0  0
    1.6820   -0.3020    0.0000 N   0  0  0  0  0  0  0  0  0  0  0  0
    1.2695   -1.0164    0.0000 C   0  0  0  0  0  0  0  0  0  0  0  0
    0.4445   -1.0164    0.0000 O   0  0  0  0  0  0  0  0  0  0  0  0
    1.6820   -1.7309    0.0000 O   0  0  0  0  0  0  0  0  0  0  0  0
    2.5070   -1.7309    0.0000 C   0  0  0  0  0  0  0  0  0  0  0  0
    3.3320   -1.7309    0.0000 C   0  0  0  0  0  0  0  0  0  0  0  0
    2.5070   -2.5559    0.0000 C   0  0  0  0  0  0  0  0  0  0  0  0
    2.5070   -0.9059    0.0000 C   0  0  0  0  0  0  0  0  0  0  0  0
  1  2  1  0  0  0  0
  2  3  1  0  0  0  0
  3  4  2  0  0  0  0
  3  5  1  0  0  0  0
  5  6  2  0  0  0  0
  6  7  1  0  0  0  0
  6  8  1  0  0  0  0
  8  9  2  0  0  0  0
  9 10  1  0  0  0  0
 10 11  2  0  0  0  0
  5 11  1  0  0  0  0
  8 12  1  0  0  0  0
 12 13  2  0  0  0  0
 13 14  1  0  0  0  0
 14 15  2  0  0  0  0
 15 16  1  0  0  0  0
 16 17  2  0  0  0  0
 12 17  1  0  0  0  0
 16 18  1  0  0  0  0
 18 19  2  0  0  0  0
 18 20  1  0  0  0  0
 20 21  1  0  0  0  0
 21 22  1  0  0  0  0
 22 23  1  0  0  0  0
 23 24  1  0  0  0  0
 20 24  1  0  0  0  0
 23 25  1  0  0  0  0
 25 26  1  0  0  0  0
 26 27  1  0  0  0  0
 27 28  1  0  0  0  0
 28 29  1  0  0  0  0
 23 29  1  0  0  0  0
 29 30  1  0  0  0  0
 30 31  2  0  0  0  0
 30 32  1  0  0  0  0
 32 33  1  0  0  0  0
 33 34  1  0  0  0  0
 33 35  1  0  0  0  0
 33 36  1  0  0  0  0
M  END
> <ID>
CPD_1602

$$$$
CPD_1607
  Mrv1822 09091914012D          

 22 22  0  0  0  0            999 V2000
    2.0003    1.4375    0.0000 C   0  0  0  0  0  0  0  0  0  0  0  0
    2.7147    1.8500    0.0000 N   0  0  0  0  0  0  0  0  0  0  0  0
    3.4292    1.4375    0.0000 C   0  0  0  0  0  0  0  0  0  0  0  0
    3.4292    0.6125    0.0000 O   0  0  0  0  0  0  0  0  0  0  0  0
    4.1437    1.8500    0.0000 C   0  0  0  0  0  0  0  0  0  0  0  0
    4.8581    1.4375    0.0000 N   0  0  0  0  0  0  0  0  0  0  0  0
    5.5726    1.8500    0.0000 C   0  0  0  0  0  0  0  0  0  0  0  0
    5.5726    2.6750    0.0000 O   0  0  0  0  0  0  0  0  0  0  0  0
    6.2871    1.4375    0.0000 C   0  0  0  0  0  0  0  0  0  0  0  0
    7.0015    1.8500    0.0000 C   0  0  0  0  0  0  0  0  0  0  0  0
    7.7160    1.4375    0.0000 N   0  0  0  0  0  0  0  0  0  0  0  0
    8.4305    1.8500    0.0000 C   0  0  0  0  0  0  0  0  0  0  0  0
    8.4305    2.6750    0.0000 O   0  0  0  0  0  0  0  0  0  0  0  0
    9.1450    1.4375    0.0000 O   0  0  0  0  0  0  0  0  0  0  0  0
    9.8594    1.8500    0.0000 C   0  0  0  0  0  0  0  0  0  0  0  0
   10.5739    2.2625    0.0000 C   0  0  0  0  0  0  0  0  0  0  0  0
   10.2719    1.1355    0.0000 C   0  0  0  0  0  0  0  0  0  0  0  0
    9.4469    2.5644    0.0000 C   0  0  0  0  0  0  0  0  0  0  0  0
    6.2871    0.6125    0.0000 C   0  0  0  0  0  0  0  0  0  0  0  0
    6.8704    0.0291    0.0000 C   0  0  0  0  0  0  0  0  0  0  0  0
    6.2871   -0.5543    0.0000 C   0  0  0  0  0  0  0  0  0  0  0  0
    5.7037    0.0291    0.0000 C   0  0  0  0  0  0  0  0  0  0  0  0
  1  2  1  0  0  0  0
  2  3  1  0  0  0  0
  3  4  2  0  0  0  0
  3  5  1  0  0  0  0
  5  6  1  0  0  0  0
  6  7  1  0  0  0  0
  7  8  2  0  0  0  0
  7  9  1  0  0  0  0
  9 10  1  0  0  0  0
 10 11  1  0  0  0  0
 11 12  1  0  0  0  0
 12 13  2  0  0  0  0
 12 14  1  0  0  0  0
 14 15  1  0  0  0  0
 15 16  1  0  0  0  0
 15 17  1  0  0  0  0
 15 18  1  0  0  0  0
  9 19  1  0  0  0  0
 19 20  1  0  0  0  0
 20 21  1  0  0  0  0
 21 22  1  0  0  0  0
 19 22  1  0  0  0  0
M  END
> <ID>
CPD_1607

$$$$
CPD_1612
  Mrv1822 09091914012D          

 20 21  0  0  0  0            999 V2000
    4.2868   -1.6500    0.0000 C   0  0  0  0  0  0  0  0  0  0  0  0
    5.0013   -2.0625    0.0000 N   0  0  0  0  0  0  0  0  0  0  0  0
    5.7158   -1.6500    0.0000 C   0  0  0  0  0  0  0  0  0  0  0  0
    5.7158   -0.8250    0.0000 O   0  0  0  0  0  0  0  0  0  0  0  0
    6.4302   -2.0625    0.0000 C   0  0  0  0  0  0  0  0  0  0  0  0
    7.1447   -1.6500    0.0000 N   0  0  0  0  0  0  0  0  0  0  0  0
    7.8592   -2.0625    0.0000 C   0  0  0  0  0  0  0  0  0  0  0  0
    7.8592   -2.8875    0.0000 O   0  0  0  0  0  0  0  0  0  0  0  0
    8.5737   -1.6500    0.0000 C   0  0  0  0  0  0  0  0  0  0  0  0
    9.2881   -2.0625    0.0000 N   0  0  0  0  0  0  0  0  0  0  0  0
   10.0026   -1.6500    0.0000 C   0  0  0  0  0  0  0  0  0  0  0  0
   10.7171   -2.0625    0.0000 C   0  0  0  0  0  0  0  0  0  0  0  0
   10.7171   -2.8875    0.0000 C   0  0  0  0  0  0  0  0  0  0  0  0
   11.4315   -3.3000    0.0000 C   0  0  0  0  0  0  0  0  0  0  0  0
   11.4315   -4.1250    0.0000 C   0  0  0  0  0  0  0  0  0  0  0  0
   10.7171   -4.5375    0.0000 C   0  0  0  0  0  0  0  0  0  0  0  0
   10.0026   -4.1250    0.0000 C   0  0  0  0  0  0  0  0  0  0  0  0
   10.0026   -3.3000    0.0000 C   0  0  0  0  0  0  0  0  0  0  0  0
    9.2881   -2.8875    0.0000 C   0  0  0  0  0  0  0  0  0  0  0  0
    8.5737   -3.3000    0.0000 O   0  0  0  0  0  0  0  0  0  0  0  0
  1  2  1  0  0  0  0
  2  3  1  0  0  0  0
  3  4  2  0  0  0  0
  3  5  1  0  0  0  0
  5  6  1  0  0  0  0
  6  7  1  0  0  0  0
  7  8  2  0  0  0  0
  7  9  1  0  0  0  0
  9 10  1  0  0  0  0
 10 11  1  0  0  0  0
 11 12  2  0  0  0  0
 12 13  1  0  0  0  0
 13 14  2  0  0  0  0
 14 15  1  0  0  0  0
 15 16  2  0  0  0  0
 16 17  1  0  0  0  0
 17 18  2  0  0  0  0
 13 18  1  0  0  0  0
 18 19  1  0  0  0  0
 10 19  1  0  0  0  0
 19 20  2  0  0  0  0
M  END
> <ID>
CPD_1612

$$$$
CPD_1617
  Mrv1822 09091914012D          

 20 21  0  0  0  0            999 V2000
    4.2475   -1.6492    0.0000 C   0  0  0  0  0  0  0  0  0  0  0  0
    4.9620   -2.0617    0.0000 N   0  0  0  0  0  0  0  0  0  0  0  0
    5.6764   -1.6492    0.0000 C   0  0  0  0  0  0  0  0  0  0  0  0
    5.6764   -0.8242    0.0000 O   0  0  0  0  0  0  0  0  0  0  0  0
    6.3909   -2.0617    0.0000 C   0  0  0  0  0  0  0  0  0  0  0  0
    7.1054   -1.6492    0.0000 N   0  0  0  0  0  0  0  0  0  0  0  0
    7.8198   -2.0617    0.0000 C   0  0  0  0  0  0  0  0  0  0  0  0
    7.8198   -2.8867    0.0000 O   0  0  0  0  0  0  0  0  0  0  0  0
    8.5343   -1.6492    0.0000 C   0  0  0  0  0  0  0  0  0  0  0  0
    8.6206   -0.8287    0.0000 C   0  0  0  0  0  0  0  0  0  0  0  0
    9.4275   -0.6572    0.0000 C   0  0  0  0  0  0  0  0  0  0  0  0
    9.8400   -1.3716    0.0000 N   0  0  0  0  0  0  0  0  0  0  0  0
    9.2880   -1.9847    0.0000 C   0  0  0  0  0  0  0  0  0  0  0  0
    9.4595   -2.7917    0.0000 C   0  0  0  0  0  0  0  0  0  0  0  0
   10.2441   -3.0466    0.0000 C   0  0  0  0  0  0  0  0  0  0  0  0
   10.8572   -2.4946    0.0000 C   0  0  0  0  0  0  0  0  0  0  0  0
   10.4157   -3.8536    0.0000 C   0  0  0  0  0  0  0  0  0  0  0  0
    9.8026   -4.4056    0.0000 C   0  0  0  0  0  0  0  0  0  0  0  0
    9.0180   -4.1507    0.0000 C   0  0  0  0  0  0  0  0  0  0  0  0
    8.8464   -3.3437    0.0000 C   0  0  0  0  0  0  0  0  0  0  0  0
  1  2  1  0  0  0  0
  2  3  1  0  0  0  0
  3  4  2  0  0  0  0
  3  5  1  0  0  0  0
  5  6  1  0  0  0  0
  6  7  1  0  0  0  0
  7  8  2  0  0  0  0
  7  9  1  0  0  0  0
  9 10  1  0  0  0  0
 10 11  1  0  0  0  0
 11 12  1  0  0  0  0
 12 13  1  0  0  0  0
  9 13  1  0  0  0  0
 13 14  1  0  0  0  0
 14 15  2  0  0  0  0
 15 16  1  0  0  0  0
 15 17  1  0  0  0  0
 17 18  2  0  0  0  0
 18 19  1  0  0  0  0
 19 20  2  0  0  0  0
 14 20  1  0  0  0  0
M  END
> <ID>
CPD_1617

$$$$
CPD_1622
  Mrv1822 09091914012D          

 26 28  0  0  1  0            999 V2000
   -0.7145   -0.4125    0.0000 H   0  0  0  0  0  0  0  0  0  0  0  0
    0.0000    0.0000    0.0000 C   0  0  1  0  0  0  0  0  0  0  0  0
    0.7145   -0.4125    0.0000 C   0  0  0  0  0  0  0  0  0  0  0  0
    1.4289    0.0000    0.0000 C   0  0  2  0  0  0  0  0  0  0  0  0
    2.1434   -0.4125    0.0000 C   0  0  0  0  0  0  0  0  0  0  0  0
    2.1434   -1.2375    0.0000 O   0  0  0  0  0  0  0  0  0  0  0  0
    2.8579    0.0000    0.0000 N   0  0  0  0  0  0  0  0  0  0  0  0
    3.5724   -0.4125    0.0000 C   0  0  0  0  0  0  0  0  0  0  0  0
    4.2868    0.0000    0.0000 C   0  0  0  0  0  0  0  0  0  0  0  0
    4.2868    0.8250    0.0000 O   0  0  0  0  0  0  0  0  0  0  0  0
    5.0013   -0.4125    0.0000 N   0  0  0  0  0  0  0  0  0  0  0  0
    5.7158    0.0000    0.0000 C   0  0  0  0  0  0  0  0  0  0  0  0
    5.7158    0.8250    0.0000 C   0  0  0  0  0  0  0  0  0  0  0  0
    5.0013    1.2375    0.0000 O   0  0  0  0  0  0  0  0  0  0  0  0
    5.0013    2.0625    0.0000 C   0  0  0  0  0  0  0  0  0  0  0  0
    6.4302    1.2375    0.0000 C   0  0  0  0  0  0  0  0  0  0  0  0
    7.1447    0.8250    0.0000 C   0  0  0  0  0  0  0  0  0  0  0  0
    7.1447    0.0000    0.0000 C   0  0  0  0  0  0  0  0  0  0  0  0
    7.8592   -0.4125    0.0000 O   0  0  0  0  0  0  0  0  0  0  0  0
    8.5737    0.0000    0.0000 C   0  0  0  0  0  0  0  0  0  0  0  0
    6.4302   -0.4125    0.0000 C   0  0  0  0  0  0  0  0  0  0  0  0
    1.4289    0.8250    0.0000 C   0  0  2  0  0  0  0  0  0  0  0  0
    2.1434    1.2375    0.0000 H   0  0  0  0  0  0  0  0  0  0  0  0
    0.6113    0.5911    0.0000 C   0  0  0  0  0  0  0  0  0  0  0  0
    0.7145    1.2375    0.0000 C   0  0  0  0  0  0  0  0  0  0  0  0
    0.0000    0.8250    0.0000 C   0  0  0  0  0  0  0  0  0  0  0  0
  2  1  1  1  0  0  0
  2  3  1  0  0  0  0
  4  3  1  0  0  0  0
  4  5  1  1  0  0  0
  5  6  2  0  0  0  0
  5  7  1  0  0  0  0
  7  8  1  0  0  0  0
  8  9  1  0  0  0  0
  9 10  2  0  0  0  0
  9 11  1  0  0  0  0
 11 12  1  0  0  0  0
 12 13  2  0  0  0  0
 13 14  1  0  0  0  0
 14 15  1  0  0  0  0
 13 16  1  0  0  0  0
 16 17  2  0  0  0  0
 17 18  1  0  0  0  0
 18 19  1  0  0  0  0
 19 20  1  0  0  0  0
 18 21  2  0  0  0  0
 12 21  1  0  0  0  0
  4 22  1  0  0  0  0
 22 23  1  1  0  0  0
 22 24  1  0  0  0  0
  2 24  1  0  0  0  0
 22 25  1  0  0  0  0
 25 26  2  0  0  0  0
  2 26  1  0  0  0  0
M  END
> <ID>
CPD_1622

$$$$
CPD_1627
  Mrv1822 09091914012D          

 34 36  0  0  0  0            999 V2000
    1.4289   -2.4750    0.0000 C   0  0  0  0  0  0  0  0  0  0  0  0
    2.1434   -2.8875    0.0000 O   0  0  0  0  0  0  0  0  0  0  0  0
    2.1434   -3.7125    0.0000 C   0  0  0  0  0  0  0  0  0  0  0  0
    2.8579   -4.1250    0.0000 C   0  0  0  0  0  0  0  0  0  0  0  0
    2.8579   -4.9500    0.0000 C   0  0  0  0  0  0  0  0  0  0  0  0
    3.5724   -5.3625    0.0000 N   0  0  0  0  0  0  0  0  0  0  0  0
    4.2868   -4.9500    0.0000 C   0  0  0  0  0  0  0  0  0  0  0  0
    4.2868   -4.1250    0.0000 O   0  0  0  0  0  0  0  0  0  0  0  0
    5.0013   -5.3625    0.0000 C   0  0  0  0  0  0  0  0  0  0  0  0
    5.7158   -4.9500    0.0000 N   0  0  0  0  0  0  0  0  0  0  0  0
    6.4302   -5.3625    0.0000 C   0  0  0  0  0  0  0  0  0  0  0  0
    6.4302   -6.1875    0.0000 O   0  0  0  0  0  0  0  0  0  0  0  0
    7.1447   -4.9500    0.0000 C   0  0  0  0  0  0  0  0  0  0  0  0
    7.1447   -4.1250    0.0000 C   0  0  0  0  0  0  0  0  0  0  0  0
    7.8592   -3.7125    0.0000 C   0  0  0  0  0  0  0  0  0  0  0  0
    8.5737   -4.1250    0.0000 C   0  0  0  0  0  0  0  0  0  0  0  0
    8.5737   -4.9500    0.0000 N   0  0  0  0  0  0  0  0  0  0  0  0
    7.8592   -5.3625    0.0000 C   0  0  0  0  0  0  0  0  0  0  0  0
    9.2881   -5.3625    0.0000 C   0  0  0  0  0  0  0  0  0  0  0  0
   10.0026   -4.9500    0.0000 C   0  0  0  0  0  0  0  0  0  0  0  0
   10.7171   -5.3625    0.0000 C   0  0  0  0  0  0  0  0  0  0  0  0
   10.7171   -6.1875    0.0000 C   0  0  0  0  0  0  0  0  0  0  0  0
   10.0026   -6.6000    0.0000 C   0  0  0  0  0  0  0  0  0  0  0  0
    9.2881   -6.1875    0.0000 C   0  0  0  0  0  0  0  0  0  0  0  0
    8.5737   -6.6000    0.0000 C   0  0  0  0  0  0  0  0  0  0  0  0
   11.4315   -6.6000    0.0000 S   0  0  0  0  0  0  0  0  0  0  0  0
   12.1460   -7.0125    0.0000 C   0  0  0  0  0  0  0  0  0  0  0  0
   11.0190   -7.3145    0.0000 O   0  0  0  0  0  0  0  0  0  0  0  0
   11.8440   -5.8855    0.0000 O   0  0  0  0  0  0  0  0  0  0  0  0
    2.1434   -5.3625    0.0000 C   0  0  0  0  0  0  0  0  0  0  0  0
    2.1434   -6.1875    0.0000 O   0  0  0  0  0  0  0  0  0  0  0  0
    1.4289   -6.6000    0.0000 C   0  0  0  0  0  0  0  0  0  0  0  0
    1.4289   -4.9500    0.0000 C   0  0  0  0  0  0  0  0  0  0  0  0
    1.4289   -4.1250    0.0000 C   0  0  0  0  0  0  0  0  0  0  0  0
  1  2  1  0  0  0  0
  2  3  1  0  0  0  0
  3  4  2  0  0  0  0
  4  5  1  0  0  0  0
  5  6  1  0  0  0  0
  6  7  1  0  0  0  0
  7  8  2  0  0  0  0
  7  9  1  0  0  0  0
  9 10  1  0  0  0  0
 10 11  1  0  0  0  0
 11 12  2  0  0  0  0
 11 13  1  0  0  0  0
 13 14  1  0  0  0  0
 14 15  1  0  0  0  0
 15 16  1  0  0  0  0
 16 17  1  0  0  0  0
 17 18  1  0  0  0  0
 13 18  1  0  0  0  0
 17 19  1  0  0  0  0
 19 20  2  0  0  0  0
 20 21  1  0  0  0  0
 21 22  2  0  0  0  0
 22 23  1  0  0  0  0
 23 24  2  0  0  0  0
 19 24  1  0  0  0  0
 24 25  1  0  0  0  0
 22 26  1  0  0  0  0
 26 27  1  0  0  0  0
 26 28  2  0  0  0  0
 26 29  2  0  0  0  0
  5 30  2  0  0  0  0
 30 31  1  0  0  0  0
 31 32  1  0  0  0  0
 30 33  1  0  0  0  0
 33 34  2  0  0  0  0
  3 34  1  0  0  0  0
M  END
> <ID>
CPD_1627

$$$$
CPD_1632
  Mrv1822 09091914012D          

 27 29  0  0  0  0            999 V2000
    2.1434   -2.0625    0.0000 C   0  0  0  0  0  0  0  0  0  0  0  0
    2.8579   -1.6500    0.0000 O   0  0  0  0  0  0  0  0  0  0  0  0
    3.5724   -2.0625    0.0000 C   0  0  0  0  0  0  0  0  0  0  0  0
    4.2868   -1.6500    0.0000 C   0  0  0  0  0  0  0  0  0  0  0  0
    5.0013   -2.0625    0.0000 C   0  0  0  0  0  0  0  0  0  0  0  0
    5.7158   -1.6500    0.0000 N   0  0  0  0  0  0  0  0  0  0  0  0
    6.4302   -2.0625    0.0000 C   0  0  0  0  0  0  0  0  0  0  0  0
    6.4302   -2.8875    0.0000 O   0  0  0  0  0  0  0  0  0  0  0  0
    7.1447   -1.6500    0.0000 C   0  0  0  0  0  0  0  0  0  0  0  0
    7.8592   -2.0625    0.0000 N   0  0  0  0  0  0  0  0  0  0  0  0
    8.5737   -1.6500    0.0000 C   0  0  0  0  0  0  0  0  0  0  0  0
    8.5737   -0.8250    0.0000 O   0  0  0  0  0  0  0  0  0  0  0  0
    9.2881   -2.0625    0.0000 C   0  0  0  0  0  0  0  0  0  0  0  0
   10.0026   -1.6500    0.0000 C   0  0  0  0  0  0  0  0  0  0  0  0
   10.7171   -2.0625    0.0000 C   0  0  0  0  0  0  0  0  0  0  0  0
   10.7171   -2.8875    0.0000 C   0  0  0  0  0  0  0  0  0  0  0  0
   11.4315   -3.3000    0.0000 C   0  0  0  0  0  0  0  0  0  0  0  0
   11.4315   -4.1250    0.0000 N   0  0  0  0  0  0  0  0  0  0  0  0
   10.7171   -4.5375    0.0000 C   0  0  0  0  0  0  0  0  0  0  0  0
   10.0026   -4.1250    0.0000 C   0  0  0  0  0  0  0  0  0  0  0  0
   10.0026   -3.3000    0.0000 C   0  0  0  0  0  0  0  0  0  0  0  0
    9.2881   -2.8875    0.0000 C   0  0  0  0  0  0  0  0  0  0  0  0
    5.0013   -2.8875    0.0000 C   0  0  0  0  0  0  0  0  0  0  0  0
    5.7158   -3.3000    0.0000 O   0  0  0  0  0  0  0  0  0  0  0  0
    5.7158   -4.1250    0.0000 C   0  0  0  0  0  0  0  0  0  0  0  0
    4.2868   -3.3000    0.0000 C   0  0  0  0  0  0  0  0  0  0  0  0
    3.5724   -2.8875    0.0000 C   0  0  0  0  0  0  0  0  0  0  0  0
  1  2  1  0  0  0  0
  2  3  1  0  0  0  0
  3  4  2  0  0  0  0
  4  5  1  0  0  0  0
  5  6  1  0  0  0  0
  6  7  1  0  0  0  0
  7  8  2  0  0  0  0
  7  9  1  0  0  0  0
  9 10  1  0  0  0  0
 10 11  1  0  0  0  0
 11 12  2  0  0  0  0
 11 13  1  0  0  0  0
 13 14  2  0  0  0  0
 14 15  1  0  0  0  0
 15 16  2  0  0  0  0
 16 17  1  0  0  0  0
 17 18  2  0  0  0  0
 18 19  1  0  0  0  0
 19 20  2  0  0  0  0
 20 21  1  0  0  0  0
 16 21  1  0  0  0  0
 21 22  2  0  0  0  0
 13 22  1  0  0  0  0
  5 23  2  0  0  0  0
 23 24  1  0  0  0  0
 24 25  1  0  0  0  0
 23 26  1  0  0  0  0
 26 27  2  0  0  0  0
  3 27  1  0  0  0  0
M  END
> <ID>
CPD_1632

$$$$
CPD_1637
  Mrv1822 09091914012D          

 28 31  0  0  0  0            999 V2000
   -1.1134    1.3044    0.0000 C   0  0  0  0  0  0  0  0  0  0  0  0
   -0.2929    1.3906    0.0000 C   0  0  0  0  0  0  0  0  0  0  0  0
    0.1921    0.7232    0.0000 N   0  0  0  0  0  0  0  0  0  0  0  0
   -0.1435   -0.0305    0.0000 C   0  0  0  0  0  0  0  0  0  0  0  0
   -0.8580    0.3820    0.0000 C   0  0  0  0  0  0  0  0  0  0  0  0
   -1.5724   -0.0305    0.0000 C   0  0  0  0  0  0  0  0  0  0  0  0
   -1.5724   -0.8555    0.0000 O   0  0  0  0  0  0  0  0  0  0  0  0
   -2.2869    0.3820    0.0000 C   0  0  0  0  0  0  0  0  0  0  0  0
   -3.0406    0.0464    0.0000 C   0  0  0  0  0  0  0  0  0  0  0  0
   -3.5926    0.6595    0.0000 C   0  0  0  0  0  0  0  0  0  0  0  0
   -3.1801    1.3740    0.0000 C   0  0  0  0  0  0  0  0  0  0  0  0
   -2.3732    1.2025    0.0000 O   0  0  0  0  0  0  0  0  0  0  0  0
   -0.6284   -0.6979    0.0000 C   0  0  0  0  0  0  0  0  0  0  0  0
   -1.2959   -1.1829    0.0000 O   0  0  0  0  0  0  0  0  0  0  0  0
   -0.1435   -1.3654    0.0000 N   0  0  0  0  0  0  0  0  0  0  0  0
   -0.3984   -2.1500    0.0000 C   0  0  0  0  0  0  0  0  0  0  0  0
    0.6411   -1.1104    0.0000 C   0  0  0  0  0  0  0  0  0  0  0  0
    0.6411   -0.2854    0.0000 C   0  0  0  0  0  0  0  0  0  0  0  0
    1.3556    0.1271    0.0000 C   0  0  0  0  0  0  0  0  0  0  0  0
    2.0701   -0.2854    0.0000 C   0  0  0  0  0  0  0  0  0  0  0  0
    2.0701   -1.1104    0.0000 C   0  0  0  0  0  0  0  0  0  0  0  0
    1.3556   -1.5229    0.0000 C   0  0  0  0  0  0  0  0  0  0  0  0
    0.0427    2.1443    0.0000 C   0  0  0  0  0  0  0  0  0  0  0  0
    0.8632    2.2305    0.0000 O   0  0  0  0  0  0  0  0  0  0  0  0
   -0.4422    2.8117    0.0000 N   0  0  0  0  0  0  0  0  0  0  0  0
   -0.1067    3.5654    0.0000 C   0  0  0  0  0  0  0  0  0  0  0  0
   -0.1929    4.3859    0.0000 C   0  0  0  0  0  0  0  0  0  0  0  0
    0.5608    4.0503    0.0000 C   0  0  0  0  0  0  0  0  0  0  0  0
  1  2  1  0  0  0  0
  2  3  1  0  0  0  0
  3  4  1  0  0  0  0
  4  5  1  0  0  0  0
  5  6  1  0  0  0  0
  6  7  2  0  0  0  0
  6  8  1  0  0  0  0
  8  9  2  0  0  0  0
  9 10  1  0  0  0  0
 10 11  2  0  0  0  0
 11 12  1  0  0  0  0
  8 12  1  0  0  0  0
  4 13  1  0  0  0  0
 13 14  2  0  0  0  0
 13 15  1  0  0  0  0
 15 16  1  0  0  0  0
 15 17  1  0  0  0  0
 17 18  2  0  0  0  0
  4 18  1  0  0  0  0
 18 19  1  0  0  0  0
 19 20  2  0  0  0  0
 20 21  1  0  0  0  0
 21 22  2  0  0  0  0
 17 22  1  0  0  0  0
  2 23  1  0  0  0  0
 23 24  2  0  0  0  0
 23 25  1  0  0  0  0
 25 26  1  0  0  0  0
 26 27  1  0  0  0  0
 27 28  1  0  0  0  0
 26 28  1  0  0  0  0
M  END
> <ID>
CPD_1637

$$$$
CPD_1642
  Mrv1822 09091914012D          

 32 35  0  0  0  0            999 V2000
   -1.1134    1.3044    0.0000 C   0  0  0  0  0  0  0  0  0  0  0  0
   -0.2929    1.3906    0.0000 C   0  0  0  0  0  0  0  0  0  0  0  0
    0.1921    0.7232    0.0000 N   0  0  0  0  0  0  0  0  0  0  0  0
   -0.1435   -0.0305    0.0000 C   0  0  0  0  0  0  0  0  0  0  0  0
   -0.8580    0.3820    0.0000 C   0  0  0  0  0  0  0  0  0  0  0  0
   -1.5724   -0.0305    0.0000 C   0  0  0  0  0  0  0  0  0  0  0  0
   -1.5724   -0.8555    0.0000 O   0  0  0  0  0  0  0  0  0  0  0  0
   -2.2869    0.3820    0.0000 C   0  0  0  0  0  0  0  0  0  0  0  0
   -3.0406    0.0464    0.0000 C   0  0  0  0  0  0  0  0  0  0  0  0
   -3.5926    0.6595    0.0000 C   0  0  0  0  0  0  0  0  0  0  0  0
   -3.1801    1.3740    0.0000 C   0  0  0  0  0  0  0  0  0  0  0  0
   -2.3732    1.2025    0.0000 S   0  0  0  0  0  0  0  0  0  0  0  0
   -0.6284   -0.6979    0.0000 C   0  0  0  0  0  0  0  0  0  0  0  0
   -1.2959   -1.1829    0.0000 O   0  0  0  0  0  0  0  0  0  0  0  0
   -0.1435   -1.3654    0.0000 N   0  0  0  0  0  0  0  0  0  0  0  0
   -0.3984   -2.1500    0.0000 C   0  0  0  0  0  0  0  0  0  0  0  0
    0.1536   -2.7631    0.0000 C   0  0  0  0  0  0  0  0  0  0  0  0
   -0.1014   -3.5477    0.0000 C   0  0  0  0  0  0  0  0  0  0  0  0
    0.4507   -4.1608    0.0000 C   0  0  0  0  0  0  0  0  0  0  0  0
    1.0027   -4.7739    0.0000 N   0  0  0  0  0  0  0  0  0  0  0  0
    0.6411   -1.1104    0.0000 C   0  0  0  0  0  0  0  0  0  0  0  0
    0.6411   -0.2854    0.0000 C   0  0  0  0  0  0  0  0  0  0  0  0
    1.3556    0.1271    0.0000 C   0  0  0  0  0  0  0  0  0  0  0  0
    2.0701   -0.2854    0.0000 C   0  0  0  0  0  0  0  0  0  0  0  0
    2.0701   -1.1104    0.0000 C   0  0  0  0  0  0  0  0  0  0  0  0
    1.3556   -1.5229    0.0000 C   0  0  0  0  0  0  0  0  0  0  0  0
    0.0427    2.1443    0.0000 C   0  0  0  0  0  0  0  0  0  0  0  0
    0.8632    2.2305    0.0000 O   0  0  0  0  0  0  0  0  0  0  0  0
   -0.4422    2.8117    0.0000 N   0  0  0  0  0  0  0  0  0  0  0  0
   -0.1067    3.5654    0.0000 C   0  0  0  0  0  0  0  0  0  0  0  0
   -0.1929    4.3859    0.0000 C   0  0  0  0  0  0  0  0  0  0  0  0
    0.5608    4.0503    0.0000 C   0  0  0  0  0  0  0  0  0  0  0  0
  1  2  1  0  0  0  0
  2  3  1  0  0  0  0
  3  4  1  0  0  0  0
  4  5  1  0  0  0  0
  5  6  1  0  0  0  0
  6  7  2  0  0  0  0
  6  8  1  0  0  0  0
  8  9  2  0  0  0  0
  9 10  1  0  0  0  0
 10 11  2  0  0  0  0
 11 12  1  0  0  0  0
  8 12  1  0  0  0  0
  4 13  1  0  0  0  0
 13 14  2  0  0  0  0
 13 15  1  0  0  0  0
 15 16  1  0  0  0  0
 16 17  1  0  0  0  0
 17 18  1  0  0  0  0
 18 19  1  0  0  0  0
 19 20  3  0  0  0  0
 15 21  1  0  0  0  0
 21 22  2  0  0  0  0
  4 22  1  0  0  0  0
 22 23  1  0  0  0  0
 23 24  2  0  0  0  0
 24 25  1  0  0  0  0
 25 26  2  0  0  0  0
 21 26  1  0  0  0  0
  2 27  1  0  0  0  0
 27 28  2  0  0  0  0
 27 29  1  0  0  0  0
 29 30  1  0  0  0  0
 30 31  1  0  0  0  0
 31 32  1  0  0  0  0
 30 32  1  0  0  0  0
M  END
> <ID>
CPD_1642

$$$$
CPD_1647
  Mrv1822 09091914012D          

 27 28  0  0  0  0            999 V2000
    6.4302    1.2375    0.0000 C   0  0  0  0  0  0  0  0  0  0  0  0
    5.7158    0.8250    0.0000 C   0  0  0  0  0  0  0  0  0  0  0  0
    5.7158    0.0000    0.0000 N   0  0  0  0  0  0  0  0  0  0  0  0
    5.0013   -0.4125    0.0000 C   0  0  0  0  0  0  0  0  0  0  0  0
    4.2868    0.0000    0.0000 C   0  0  0  0  0  0  0  0  0  0  0  0
    4.2868    0.8250    0.0000 C   0  0  0  0  0  0  0  0  0  0  0  0
    3.5724    1.2375    0.0000 S   0  0  0  0  0  0  0  0  0  0  0  0
    2.8579    1.6500    0.0000 O   0  5  0  0  0  0  0  0  0  0  0  0
    3.9849    1.9520    0.0000 O   0  0  0  0  0  0  0  0  0  0  0  0
    3.1599    0.5230    0.0000 O   0  0  0  0  0  0  0  0  0  0  0  0
    3.5724   -0.4125    0.0000 N   0  0  0  0  0  0  0  0  0  0  0  0
    3.5724   -1.2375    0.0000 C   0  0  0  0  0  0  0  0  0  0  0  0
    2.8579   -1.6500    0.0000 C   0  0  0  0  0  0  0  0  0  0  0  0
    2.1434   -1.2375    0.0000 O   0  0  0  0  0  0  0  0  0  0  0  0
    2.8579   -2.4750    0.0000 C   0  0  0  0  0  0  0  0  0  0  0  0
    3.5724   -2.8875    0.0000 C   0  0  0  0  0  0  0  0  0  0  0  0
    4.2868   -2.4750    0.0000 C   0  0  0  0  0  0  0  0  0  0  0  0
    5.0013   -2.8875    0.0000 C   0  0  0  0  0  0  0  0  0  0  0  0
    4.2868   -1.6500    0.0000 C   0  0  0  0  0  0  0  0  0  0  0  0
    5.0013   -1.2375    0.0000 Cl  0  0  0  0  0  0  0  0  0  0  0  0
    6.4302   -0.4125    0.0000 C   0  0  0  0  0  0  0  0  0  0  0  0
    7.1447    0.0000    0.0000 C   0  0  0  0  0  0  0  0  0  0  0  0
    7.8592   -0.4125    0.0000 C   0  0  0  0  0  0  0  0  0  0  0  0
    8.5737    0.0000    0.0000 C   0  0  0  0  0  0  0  0  0  0  0  0
    7.8592   -1.2375    0.0000 C   0  0  0  0  0  0  0  0  0  0  0  0
    7.1447   -1.6500    0.0000 C   0  0  0  0  0  0  0  0  0  0  0  0
    6.4302   -1.2375    0.0000 C   0  0  0  0  0  0  0  0  0  0  0  0
  1  2  1  0  0  0  0
  2  3  1  0  0  0  0
  3  4  1  0  0  0  0
  4  5  1  0  0  0  0
  5  6  1  0  0  0  0
  6  7  1  0  0  0  0
  7  8  1  0  0  0  0
  7  9  2  0  0  0  0
  7 10  2  0  0  0  0
  5 11  1  0  0  0  0
 11 12  1  0  0  0  0
 12 13  2  0  0  0  0
 13 14  1  0  0  0  0
 13 15  1  0  0  0  0
 15 16  2  0  0  0  0
 16 17  1  0  0  0  0
 17 18  1  0  0  0  0
 17 19  2  0  0  0  0
 12 19  1  0  0  0  0
 19 20  1  0  0  0  0
  3 21  1  0  0  0  0
 21 22  2  0  0  0  0
 22 23  1  0  0  0  0
 23 24  1  0  0  0  0
 23 25  2  0  0  0  0
 25 26  1  0  0  0  0
 26 27  2  0  0  0  0
 21 27  1  0  0  0  0
M  CHG  1   8  -1
M  END
> <ID>
CPD_1647

$$$$
CPD_1652
  Mrv1822 09091914012D          

 28 30  0  0  0  0            999 V2000
    2.8579   -4.9500    0.0000 C   0  0  0  0  0  0  0  0  0  0  0  0
    2.8579   -5.7750    0.0000 C   0  0  0  0  0  0  0  0  0  0  0  0
    3.5724   -6.1875    0.0000 C   0  0  0  0  0  0  0  0  0  0  0  0
    4.2868   -5.7750    0.0000 Cl  0  0  0  0  0  0  0  0  0  0  0  0
    3.5724   -7.0125    0.0000 C   0  0  0  0  0  0  0  0  0  0  0  0
    4.2868   -7.4250    0.0000 N   0  0  0  0  0  0  0  0  0  0  0  0
    4.2868   -8.2500    0.0000 C   0  0  0  0  0  0  0  0  0  0  0  0
    5.0013   -8.6625    0.0000 C   0  0  0  0  0  0  0  0  0  0  0  0
    5.0013   -9.4875    0.0000 N   0  0  0  0  0  0  0  0  0  0  0  0
    5.7158   -9.9000    0.0000 C   0  0  0  0  0  0  0  0  0  0  0  0
    5.7158  -10.7250    0.0000 C   0  0  0  0  0  0  0  0  0  0  0  0
    5.0013  -11.1375    0.0000 N   0  0  0  0  0  0  0  0  0  0  0  0
    4.2868  -10.7250    0.0000 C   0  0  0  0  0  0  0  0  0  0  0  0
    4.2868   -9.9000    0.0000 C   0  0  0  0  0  0  0  0  0  0  0  0
    5.0013  -11.9625    0.0000 S   0  0  0  0  0  0  0  0  0  0  0  0
    4.1763  -11.9625    0.0000 O   0  0  0  0  0  0  0  0  0  0  0  0
    5.8263  -11.9625    0.0000 O   0  0  0  0  0  0  0  0  0  0  0  0
    5.0013  -12.7875    0.0000 C   0  0  0  0  0  0  0  0  0  0  0  0
    5.7158  -13.2000    0.0000 C   0  0  0  0  0  0  0  0  0  0  0  0
    5.7158  -14.0250    0.0000 C   0  0  0  0  0  0  0  0  0  0  0  0
    5.0013  -14.4375    0.0000 C   0  0  0  0  0  0  0  0  0  0  0  0
    5.0013  -15.2625    0.0000 F   0  0  0  0  0  0  0  0  0  0  0  0
    4.2868  -14.0250    0.0000 C   0  0  0  0  0  0  0  0  0  0  0  0
    4.2868  -13.2000    0.0000 C   0  0  0  0  0  0  0  0  0  0  0  0
    2.8579   -7.4250    0.0000 C   0  0  0  0  0  0  0  0  0  0  0  0
    2.8579   -8.2500    0.0000 O   0  0  0  0  0  0  0  0  0  0  0  0
    2.1434   -7.0125    0.0000 C   0  0  0  0  0  0  0  0  0  0  0  0
    2.1434   -6.1875    0.0000 C   0  0  0  0  0  0  0  0  0  0  0  0
  1  2  1  0  0  0  0
  2  3  2  0  0  0  0
  3  4  1  0  0  0  0
  3  5  1  0  0  0  0
  5  6  1  0  0  0  0
  6  7  1  0  0  0  0
  7  8  1  0  0  0  0
  8  9  1  0  0  0  0
  9 10  1  0  0  0  0
 10 11  1  0  0  0  0
 11 12  1  0  0  0  0
 12 13  1  0  0  0  0
 13 14  1  0  0  0  0
  9 14  1  0  0  0  0
 12 15  1  0  0  0  0
 15 16  2  0  0  0  0
 15 17  2  0  0  0  0
 15 18  1  0  0  0  0
 18 19  2  0  0  0  0
 19 20  1  0  0  0  0
 20 21  2  0  0  0  0
 21 22  1  0  0  0  0
 21 23  1  0  0  0  0
 23 24  2  0  0  0  0
 18 24  1  0  0  0  0
  5 25  2  0  0  0  0
 25 26  1  0  0  0  0
 25 27  1  0  0  0  0
 27 28  2  0  0  0  0
  2 28  1  0  0  0  0
M  END
> <ID>
CPD_1652

$$$$
CPD_1657
  Mrv1822 09091914012D          

 28 30  0  0  0  0            999 V2000
   -1.4289   -3.3000    0.0000 C   0  0  0  0  0  0  0  0  0  0  0  0
   -0.7145   -3.7125    0.0000 O   0  0  0  0  0  0  0  0  0  0  0  0
   -0.7145   -4.5375    0.0000 C   0  0  0  0  0  0  0  0  0  0  0  0
    0.0000   -4.9500    0.0000 C   0  0  0  0  0  0  0  0  0  0  0  0
    0.0000   -5.7750    0.0000 C   0  0  0  0  0  0  0  0  0  0  0  0
   -0.7145   -6.1875    0.0000 C   0  0  0  0  0  0  0  0  0  0  0  0
   -0.7145   -7.0125    0.0000 C   0  0  0  0  0  0  0  0  0  0  0  0
    0.0000   -7.4250    0.0000 N   0  0  0  0  0  0  0  0  0  0  0  0
    0.0000   -8.2500    0.0000 C   0  0  0  0  0  0  0  0  0  0  0  0
    0.7145   -8.6625    0.0000 C   0  0  0  0  0  0  0  0  0  0  0  0
    1.4289   -8.2500    0.0000 N   0  0  0  0  0  0  0  0  0  0  0  0
    2.1434   -8.6625    0.0000 C   0  0  0  0  0  0  0  0  0  0  0  0
    1.7309   -9.3770    0.0000 C   0  0  0  0  0  0  0  0  0  0  0  0
    2.5559   -7.9480    0.0000 C   0  0  0  0  0  0  0  0  0  0  0  0
    2.8579   -9.0750    0.0000 C   0  0  0  0  0  0  0  0  0  0  0  0
    3.5724   -8.6625    0.0000 C   0  0  0  0  0  0  0  0  0  0  0  0
    3.5724   -7.8375    0.0000 Cl  0  0  0  0  0  0  0  0  0  0  0  0
    4.2868   -9.0750    0.0000 C   0  0  0  0  0  0  0  0  0  0  0  0
    4.2868   -9.9000    0.0000 N   0  0  0  0  0  0  0  0  0  0  0  0
    3.5724  -10.3125    0.0000 C   0  0  0  0  0  0  0  0  0  0  0  0
    2.8579   -9.9000    0.0000 C   0  0  0  0  0  0  0  0  0  0  0  0
    0.7145   -9.4875    0.0000 C   0  0  0  0  0  0  0  0  0  0  0  0
   -0.0000   -9.9000    0.0000 C   0  0  0  0  0  0  0  0  0  0  0  0
   -0.0000  -10.7250    0.0000 Br  0  0  0  0  0  0  0  0  0  0  0  0
   -0.7145   -9.4875    0.0000 C   0  0  0  0  0  0  0  0  0  0  0  0
   -0.7145   -8.6625    0.0000 N   0  0  0  0  0  0  0  0  0  0  0  0
   -1.4289   -5.7750    0.0000 C   0  0  0  0  0  0  0  0  0  0  0  0
   -1.4289   -4.9500    0.0000 C   0  0  0  0  0  0  0  0  0  0  0  0
  1  2  1  0  0  0  0
  2  3  1  0  0  0  0
  3  4  2  0  0  0  0
  4  5  1  0  0  0  0
  5  6  2  0  0  0  0
  6  7  1  0  0  0  0
  7  8  1  0  0  0  0
  8  9  1  0  0  0  0
  9 10  2  0  0  0  0
 10 11  1  0  0  0  0
 11 12  1  0  0  0  0
 12 13  1  0  0  0  0
 12 14  1  0  0  0  0
 12 15  1  0  0  0  0
 15 16  2  0  0  0  0
 16 17  1  0  0  0  0
 16 18  1  0  0  0  0
 18 19  2  0  0  0  0
 19 20  1  0  0  0  0
 20 21  2  0  0  0  0
 15 21  1  0  0  0  0
 10 22  1  0  0  0  0
 22 23  2  0  0  0  0
 23 24  1  0  0  0  0
 23 25  1  0  0  0  0
 25 26  2  0  0  0  0
  9 26  1  0  0  0  0
  6 27  1  0  0  0  0
 27 28  2  0  0  0  0
  3 28  1  0  0  0  0
M  END
> <ID>
CPD_1657

$$$$
CPD_1662
  Mrv1822 09091914012D          

 33 38  0  0  1  0            999 V2000
    2.0847    2.1306    0.0000 C   0  0  0  0  0  0  0  0  0  0  0  0
    1.8164    2.9107    0.0000 C   0  0  0  0  0  0  0  0  0  0  0  0
    1.0066    3.0685    0.0000 N   0  0  0  0  0  0  0  0  0  0  0  0
    0.4651    2.4460    0.0000 C   0  0  0  0  0  0  0  0  0  0  0  0
   -0.3447    2.6038    0.0000 C   0  0  0  0  0  0  0  0  0  0  0  0
   -0.6129    3.3839    0.0000 O   0  0  0  0  0  0  0  0  0  0  0  0
   -0.0715    4.0064    0.0000 C   0  0  0  0  0  0  0  0  0  0  0  0
    0.7383    3.8486    0.0000 C   0  0  0  0  0  0  0  0  0  0  0  0
    2.8945    1.9728    0.0000 N   0  0  0  0  0  0  0  0  0  0  0  0
    3.4359    2.5952    0.0000 C   0  0  0  0  0  0  0  0  0  0  0  0
    4.2578    2.5230    0.0000 C   0  0  0  0  0  0  0  0  0  0  0  0
    4.5804    3.2823    0.0000 C   0  0  0  0  0  0  0  0  0  0  0  0
    3.9580    3.8238    0.0000 C   0  0  0  0  0  0  0  0  0  0  0  0
    3.2507    3.3992    0.0000 C   0  0  2  0  0  0  0  0  0  0  0  0
    2.4914    3.7218    0.0000 N   0  0  0  0  0  0  0  0  0  0  0  0
    1.7841    3.2972    0.0000 C   0  0  0  0  0  0  0  0  0  0  0  0
    1.1616    3.8387    0.0000 C   0  0  0  0  0  0  0  0  0  0  0  0
    1.4843    4.5980    0.0000 C   0  0  0  0  0  0  0  0  0  0  0  0
    2.3061    4.5258    0.0000 C   0  0  0  0  0  0  0  0  0  0  0  0
    3.1627    1.1927    0.0000 C   0  0  0  0  0  0  0  0  0  0  0  0
    3.9725    1.0349    0.0000 N   0  0  0  0  0  0  0  0  0  0  0  0
    4.2408    0.2548    0.0000 C   0  0  0  0  0  0  0  0  0  0  0  0
    3.6993   -0.3677    0.0000 N   0  0  0  0  0  0  0  0  0  0  0  0
    2.8895   -0.2099    0.0000 C   0  0  0  0  0  0  0  0  0  0  0  0
    2.6212    0.5702    0.0000 C   0  0  0  0  0  0  0  0  0  0  0  0
    1.7964    0.5562    0.0000 C   0  0  0  0  0  0  0  0  0  0  0  0
    1.5548   -0.2327    0.0000 C   0  0  0  0  0  0  0  0  0  0  0  0
    0.7875   -0.5357    0.0000 C   0  0  0  0  0  0  0  0  0  0  0  0
    0.0722   -0.1247    0.0000 C   0  0  0  0  0  0  0  0  0  0  0  0
   -0.0525    0.6908    0.0000 C   0  0  0  0  0  0  0  0  0  0  0  0
    0.5074    1.2968    0.0000 C   0  0  0  0  0  0  0  0  0  0  0  0
    1.3302    1.2368    0.0000 C   0  0  0  0  0  0  0  0  0  0  0  0
    2.2305   -0.7062    0.0000 S   0  0  0  0  0  0  0  0  0  0  0  0
  1  2  1  0  0  0  0
  2  3  1  0  0  0  0
  3  4  1  0  0  0  0
  4  5  1  0  0  0  0
  5  6  1  0  0  0  0
  6  7  1  0  0  0  0
  7  8  1  0  0  0  0
  3  8  1  0  0  0  0
  1  9  1  0  0  0  0
  9 10  1  0  0  0  0
 10 11  1  0  0  0  0
 11 12  1  0  0  0  0
 12 13  1  0  0  0  0
 14 13  1  0  0  0  0
 14 10  1  0  0  0  0
 14 15  1  1  0  0  0
 15 16  1  0  0  0  0
 16 17  1  0  0  0  0
 17 18  1  0  0  0  0
 18 19  1  0  0  0  0
 15 19  1  0  0  0  0
  9 20  1  0  0  0  0
 20 21  2  0  0  0  0
 21 22  1  0  0  0  0
 22 23  2  0  0  0  0
 23 24  1  0  0  0  0
 24 25  2  0  0  0  0
 20 25  1  0  0  0  0
 25 26  1  0  0  0  0
 26 27  2  0  0  0  0
 27 28  1  0  0  0  0
 28 29  1  0  0  0  0
 29 30  1  0  0  0  0
 30 31  1  0  0  0  0
 31 32  1  0  0  0  0
 26 32  1  0  0  0  0
 27 33  1  0  0  0  0
 24 33  1  0  0  0  0
M  END
> <ID>
CPD_1662

$$$$
CPD_1667
  Mrv1822 09091914012D          

 27 29  0  0  0  0            999 V2000
    2.1434   -0.4125    0.0000 C   0  0  0  0  0  0  0  0  0  0  0  0
    2.8579   -0.8250    0.0000 O   0  0  0  0  0  0  0  0  0  0  0  0
    2.8579   -1.6500    0.0000 C   0  0  0  0  0  0  0  0  0  0  0  0
    3.5724   -2.0625    0.0000 C   0  0  0  0  0  0  0  0  0  0  0  0
    3.5724   -2.8875    0.0000 C   0  0  0  0  0  0  0  0  0  0  0  0
    2.8579   -3.3000    0.0000 C   0  0  0  0  0  0  0  0  0  0  0  0
    2.1434   -2.8875    0.0000 C   0  0  0  0  0  0  0  0  0  0  0  0
    2.1434   -2.0625    0.0000 C   0  0  0  0  0  0  0  0  0  0  0  0
    2.8579   -4.1250    0.0000 S   0  0  0  0  0  0  0  0  0  0  0  0
    2.0329   -4.1250    0.0000 O   0  0  0  0  0  0  0  0  0  0  0  0
    3.6829   -4.1250    0.0000 O   0  0  0  0  0  0  0  0  0  0  0  0
    2.8579   -4.9500    0.0000 N   0  0  0  0  0  0  0  0  0  0  0  0
    3.5724   -5.3625    0.0000 C   0  0  0  0  0  0  0  0  0  0  0  0
    3.5724   -6.1875    0.0000 C   0  0  0  0  0  0  0  0  0  0  0  0
    4.2868   -6.6000    0.0000 C   0  0  0  0  0  0  0  0  0  0  0  0
    4.2868   -7.4250    0.0000 C   0  0  0  0  0  0  0  0  0  0  0  0
    3.5724   -7.8375    0.0000 C   0  0  0  0  0  0  0  0  0  0  0  0
    2.8579   -7.4250    0.0000 C   0  0  0  0  0  0  0  0  0  0  0  0
    2.8579   -6.6000    0.0000 O   0  0  0  0  0  0  0  0  0  0  0  0
    2.1434   -5.3625    0.0000 C   0  0  0  0  0  0  0  0  0  0  0  0
    2.1434   -6.1875    0.0000 C   0  0  0  0  0  0  0  0  0  0  0  0
    1.4289   -6.6000    0.0000 C   0  0  0  0  0  0  0  0  0  0  0  0
    0.7145   -6.1875    0.0000 C   0  0  0  0  0  0  0  0  0  0  0  0
    0.7145   -5.3625    0.0000 C   0  0  0  0  0  0  0  0  0  0  0  0
   -0.0000   -4.9500    0.0000 Cl  0  0  0  0  0  0  0  0  0  0  0  0
    1.4289   -4.9500    0.0000 C   0  0  0  0  0  0  0  0  0  0  0  0
    1.4289   -4.1250    0.0000 C   0  0  0  0  0  0  0  0  0  0  0  0
  1  2  1  0  0  0  0
  2  3  1  0  0  0  0
  3  4  2  0  0  0  0
  4  5  1  0  0  0  0
  5  6  2  0  0  0  0
  6  7  1  0  0  0  0
  7  8  2  0  0  0  0
  3  8  1  0  0  0  0
  6  9  1  0  0  0  0
  9 10  2  0  0  0  0
  9 11  2  0  0  0  0
  9 12  1  0  0  0  0
 12 13  1  0  0  0  0
 13 14  1  0  0  0  0
 14 15  1  0  0  0  0
 15 16  1  0  0  0  0
 16 17  1  0  0  0  0
 17 18  1  0  0  0  0
 18 19  1  0  0  0  0
 14 19  1  0  0  0  0
 12 20  1  0  0  0  0
 20 21  2  0  0  0  0
 21 22  1  0  0  0  0
 22 23  2  0  0  0  0
 23 24  1  0  0  0  0
 24 25  1  0  0  0  0
 24 26  2  0  0  0  0
 20 26  1  0  0  0  0
 26 27  1  0  0  0  0
M  END
> <ID>
CPD_1667

$$$$
CPD_1672
  Mrv1822 09091914012D          

 36 39  0  0  0  0            999 V2000
   -0.3904   -2.8891    0.0000 C   0  0  0  0  0  0  0  0  0  0  0  0
   -0.2188   -2.0821    0.0000 C   0  0  0  0  0  0  0  0  0  0  0  0
   -0.8319   -1.5301    0.0000 O   0  0  0  0  0  0  0  0  0  0  0  0
   -1.6166   -1.7850    0.0000 C   0  0  0  0  0  0  0  0  0  0  0  0
   -1.7881   -2.5920    0.0000 O   0  0  0  0  0  0  0  0  0  0  0  0
   -2.2296   -1.2330    0.0000 N   0  0  0  0  0  0  0  0  0  0  0  0
   -3.0366   -1.4045    0.0000 N   0  0  0  0  0  0  0  0  0  0  0  0
   -3.4491   -0.6900    0.0000 C   0  0  0  0  0  0  0  0  0  0  0  0
   -2.8971   -0.0769    0.0000 C   0  0  0  0  0  0  0  0  0  0  0  0
   -2.1434   -0.4125    0.0000 C   0  0  0  0  0  0  0  0  0  0  0  0
   -1.4289    0.0000    0.0000 N   0  0  0  0  0  0  0  0  0  0  0  0
   -0.7145   -0.4125    0.0000 C   0  0  0  0  0  0  0  0  0  0  0  0
    0.0000    0.0000    0.0000 C   0  0  0  0  0  0  0  0  0  0  0  0
    0.7145   -0.4125    0.0000 C   0  0  0  0  0  0  0  0  0  0  0  0
    1.4289    0.0000    0.0000 O   0  0  0  0  0  0  0  0  0  0  0  0
    2.1434   -0.4125    0.0000 C   0  0  0  0  0  0  0  0  0  0  0  0
    2.8579    0.0000    0.0000 C   0  0  0  0  0  0  0  0  0  0  0  0
    3.5724   -0.4125    0.0000 C   0  0  0  0  0  0  0  0  0  0  0  0
    3.5724   -1.2375    0.0000 C   0  0  0  0  0  0  0  0  0  0  0  0
    2.8579   -1.6500    0.0000 C   0  0  0  0  0  0  0  0  0  0  0  0
    2.1434   -1.2375    0.0000 C   0  0  0  0  0  0  0  0  0  0  0  0
    1.4289   -1.6500    0.0000 N   0  0  0  0  0  0  0  0  0  0  0  0
    0.7145   -1.2375    0.0000 C   0  0  0  0  0  0  0  0  0  0  0  0
    0.0000   -1.6500    0.0000 O   0  0  0  0  0  0  0  0  0  0  0  0
    4.2868   -1.6500    0.0000 S   0  0  0  0  0  0  0  0  0  0  0  0
    4.6993   -0.9355    0.0000 O   0  0  0  0  0  0  0  0  0  0  0  0
    3.8743   -2.3645    0.0000 O   0  0  0  0  0  0  0  0  0  0  0  0
    5.0013   -2.0625    0.0000 C   0  0  0  0  0  0  0  0  0  0  0  0
    5.0013   -2.8875    0.0000 C   0  0  0  0  0  0  0  0  0  0  0  0
   -4.2696   -0.6038    0.0000 C   0  0  0  0  0  0  0  0  0  0  0  0
   -4.7545   -1.2712    0.0000 C   0  0  0  0  0  0  0  0  0  0  0  0
   -5.5750   -1.1850    0.0000 C   0  0  0  0  0  0  0  0  0  0  0  0
   -5.9106   -0.4313    0.0000 C   0  0  0  0  0  0  0  0  0  0  0  0
   -6.7310   -0.3451    0.0000 Cl  0  0  0  0  0  0  0  0  0  0  0  0
   -5.4256    0.2361    0.0000 C   0  0  0  0  0  0  0  0  0  0  0  0
   -4.6052    0.1499    0.0000 C   0  0  0  0  0  0  0  0  0  0  0  0
  1  2  1  0  0  0  0
  2  3  1  0  0  0  0
  3  4  1  0  0  0  0
  4  5  2  0  0  0  0
  4  6  1  0  0  0  0
  6  7  1  0  0  0  0
  7  8  2  0  0  0  0
  8  9  1  0  0  0  0
  9 10  2  0  0  0  0
  6 10  1  0  0  0  0
 10 11  1  0  0  0  0
 11 12  1  0  0  0  0
 12 13  1  0  0  0  0
 13 14  1  0  0  0  0
 14 15  1  0  0  0  0
 15 16  1  0  0  0  0
 16 17  2  0  0  0  0
 17 18  1  0  0  0  0
 18 19  2  0  0  0  0
 19 20  1  0  0  0  0
 20 21  2  0  0  0  0
 16 21  1  0  0  0  0
 21 22  1  0  0  0  0
 22 23  1  0  0  0  0
 14 23  1  0  0  0  0
 23 24  2  0  0  0  0
 19 25  1  0  0  0  0
 25 26  2  0  0  0  0
 25 27  2  0  0  0  0
 25 28  1  0  0  0  0
 28 29  1  0  0  0  0
  8 30  1  0  0  0  0
 30 31  2  0  0  0  0
 31 32  1  0  0  0  0
 32 33  2  0  0  0  0
 33 34  1  0  0  0  0
 33 35  1  0  0  0  0
 35 36  2  0  0  0  0
 30 36  1  0  0  0  0
M  END
> <ID>
CPD_1672

$$$$
CPD_1677
  Mrv1822 09091914012D          

 36 39  0  0  1  0            999 V2000
    2.8579   -0.0000    0.0000 C   0  0  0  0  0  0  0  0  0  0  0  0
    2.1434   -0.4125    0.0000 C   0  0  0  0  0  0  0  0  0  0  0  0
    1.4289   -0.0000    0.0000 O   0  0  0  0  0  0  0  0  0  0  0  0
    0.7145   -0.4125    0.0000 C   0  0  0  0  0  0  0  0  0  0  0  0
    0.0000   -0.0000    0.0000 O   0  0  0  0  0  0  0  0  0  0  0  0
    0.7145   -1.2375    0.0000 N   0  0  0  0  0  0  0  0  0  0  0  0
    1.3819   -1.7224    0.0000 N   0  0  0  0  0  0  0  0  0  0  0  0
    1.1270   -2.5070    0.0000 C   0  0  0  0  0  0  0  0  0  0  0  0
    0.3020   -2.5070    0.0000 C   0  0  0  0  0  0  0  0  0  0  0  0
    0.0470   -1.7224    0.0000 C   0  0  0  0  0  0  0  0  0  0  0  0
   -0.7376   -1.4675    0.0000 N   0  0  0  0  0  0  0  0  0  0  0  0
   -1.3507   -2.0195    0.0000 C   0  0  0  0  0  0  0  0  0  0  0  0
   -1.2644   -2.8400    0.0000 C   0  0  0  0  0  0  0  0  0  0  0  0
   -2.0181   -3.1756    0.0000 N   0  0  0  0  0  0  0  0  0  0  0  0
   -2.5702   -2.5625    0.0000 C   0  0  2  0  0  0  0  0  0  0  0  0
   -3.3906   -2.6487    0.0000 C   0  0  0  0  0  0  0  0  0  0  0  0
   -3.7262   -3.4024    0.0000 C   0  0  0  0  0  0  0  0  0  0  0  0
   -3.2413   -4.0698    0.0000 C   0  0  0  0  0  0  0  0  0  0  0  0
   -3.5768   -4.8235    0.0000 C   0  0  0  0  0  0  0  0  0  0  0  0
   -4.3973   -4.9097    0.0000 C   0  0  0  0  0  0  0  0  0  0  0  0
   -4.7329   -5.6634    0.0000 O   0  0  0  0  0  0  0  0  0  0  0  0
   -5.5533   -5.7496    0.0000 C   0  0  0  0  0  0  0  0  0  0  0  0
   -4.8822   -4.2423    0.0000 C   0  0  0  0  0  0  0  0  0  0  0  0
   -4.5467   -3.4886    0.0000 C   0  0  0  0  0  0  0  0  0  0  0  0
   -2.1577   -1.8480    0.0000 C   0  0  2  0  0  0  0  0  0  0  0  0
   -2.4932   -1.0943    0.0000 O   0  0  0  0  0  0  0  0  0  0  0  0
   -3.3137   -1.0081    0.0000 C   0  0  0  0  0  0  0  0  0  0  0  0
   -3.7986   -1.6755    0.0000 C   0  0  0  0  0  0  0  0  0  0  0  0
   -3.6493   -0.2544    0.0000 O   0  0  0  0  0  0  0  0  0  0  0  0
    1.6119   -3.1745    0.0000 C   0  0  0  0  0  0  0  0  0  0  0  0
    2.4324   -3.0882    0.0000 C   0  0  0  0  0  0  0  0  0  0  0  0
    2.9173   -3.7557    0.0000 C   0  0  0  0  0  0  0  0  0  0  0  0
    2.5817   -4.5094    0.0000 C   0  0  0  0  0  0  0  0  0  0  0  0
    3.0667   -5.1768    0.0000 Cl  0  0  0  0  0  0  0  0  0  0  0  0
    1.7613   -4.5956    0.0000 C   0  0  0  0  0  0  0  0  0  0  0  0
    1.2763   -3.9282    0.0000 C   0  0  0  0  0  0  0  0  0  0  0  0
  1  2  1  0  0  0  0
  2  3  1  0  0  0  0
  3  4  1  0  0  0  0
  4  5  2  0  0  0  0
  4  6  1  0  0  0  0
  6  7  1  0  0  0  0
  7  8  2  0  0  0  0
  8  9  1  0  0  0  0
  9 10  2  0  0  0  0
  6 10  1  0  0  0  0
 10 11  1  0  0  0  0
 11 12  1  0  0  0  0
 12 13  1  0  0  0  0
 13 14  1  0  0  0  0
 15 14  1  0  0  0  0
 15 16  1  6  0  0  0
 16 17  1  0  0  0  0
 17 18  2  0  0  0  0
 18 19  1  0  0  0  0
 19 20  2  0  0  0  0
 20 21  1  0  0  0  0
 21 22  1  0  0  0  0
 20 23  1  0  0  0  0
 23 24  2  0  0  0  0
 17 24  1  0  0  0  0
 15 25  1  0  0  0  0
 25 12  1  0  0  0  0
 25 26  1  6  0  0  0
 26 27  1  0  0  0  0
 27 28  1  0  0  0  0
 27 29  2  0  0  0  0
  8 30  1  0  0  0  0
 30 31  2  0  0  0  0
 31 32  1  0  0  0  0
 32 33  2  0  0  0  0
 33 34  1  0  0  0  0
 33 35  1  0  0  0  0
 35 36  2  0  0  0  0
 30 36  1  0  0  0  0
M  END
> <ID>
CPD_1677

$$$$
CPD_1682
  Mrv1822 09091914012D          

 28 30  0  0  0  0            999 V2000
   -2.1041   -4.1886    0.0000 C   0  0  0  0  0  0  0  0  0  0  0  0
   -1.3195   -3.9337    0.0000 C   0  0  0  0  0  0  0  0  0  0  0  0
   -0.7064   -4.4857    0.0000 O   0  0  0  0  0  0  0  0  0  0  0  0
    0.0782   -4.2308    0.0000 C   0  0  0  0  0  0  0  0  0  0  0  0
    0.6913   -4.7828    0.0000 O   0  0  0  0  0  0  0  0  0  0  0  0
    0.2498   -3.4238    0.0000 N   0  0  0  0  0  0  0  0  0  0  0  0
   -0.3023   -2.8107    0.0000 N   0  0  0  0  0  0  0  0  0  0  0  0
    0.1102   -2.0962    0.0000 C   0  0  0  0  0  0  0  0  0  0  0  0
    0.9172   -2.2678    0.0000 C   0  0  0  0  0  0  0  0  0  0  0  0
    1.0034   -3.0882    0.0000 C   0  0  0  0  0  0  0  0  0  0  0  0
    1.7179   -3.5007    0.0000 N   0  0  0  0  0  0  0  0  0  0  0  0
    2.4324   -3.0882    0.0000 C   0  0  0  0  0  0  0  0  0  0  0  0
    3.1468   -3.5007    0.0000 C   0  0  0  0  0  0  0  0  0  0  0  0
    3.8613   -3.0882    0.0000 N   0  0  0  0  0  0  0  0  0  0  0  0
    4.5758   -3.5007    0.0000 C   0  0  0  0  0  0  0  0  0  0  0  0
    2.4324   -2.2632    0.0000 C   0  0  0  0  0  0  0  0  0  0  0  0
    1.7179   -1.8507    0.0000 C   0  0  0  0  0  0  0  0  0  0  0  0
    1.7179   -1.0257    0.0000 C   0  0  0  0  0  0  0  0  0  0  0  0
    2.4324   -0.6132    0.0000 C   0  0  0  0  0  0  0  0  0  0  0  0
    3.1468   -1.0257    0.0000 C   0  0  0  0  0  0  0  0  0  0  0  0
    3.1468   -1.8507    0.0000 C   0  0  0  0  0  0  0  0  0  0  0  0
   -0.2253   -1.3426    0.0000 C   0  0  0  0  0  0  0  0  0  0  0  0
   -1.0458   -1.2563    0.0000 C   0  0  0  0  0  0  0  0  0  0  0  0
   -1.3814   -0.5027    0.0000 C   0  0  0  0  0  0  0  0  0  0  0  0
   -0.8964    0.1648    0.0000 C   0  0  0  0  0  0  0  0  0  0  0  0
   -1.2320    0.9185    0.0000 Cl  0  0  0  0  0  0  0  0  0  0  0  0
   -0.0760    0.0785    0.0000 C   0  0  0  0  0  0  0  0  0  0  0  0
    0.2596   -0.6751    0.0000 C   0  0  0  0  0  0  0  0  0  0  0  0
  1  2  1  0  0  0  0
  2  3  1  0  0  0  0
  3  4  1  0  0  0  0
  4  5  2  0  0  0  0
  4  6  1  0  0  0  0
  6  7  1  0  0  0  0
  7  8  2  0  0  0  0
  8  9  1  0  0  0  0
  9 10  2  0  0  0  0
  6 10  1  0  0  0  0
 10 11  1  0  0  0  0
 11 12  1  0  0  0  0
 12 13  1  0  0  0  0
 13 14  1  0  0  0  0
 14 15  1  0  0  0  0
 12 16  1  0  0  0  0
 16 17  2  0  0  0  0
 17 18  1  0  0  0  0
 18 19  2  0  0  0  0
 19 20  1  0  0  0  0
 20 21  2  0  0  0  0
 16 21  1  0  0  0  0
  8 22  1  0  0  0  0
 22 23  2  0  0  0  0
 23 24  1  0  0  0  0
 24 25  2  0  0  0  0
 25 26  1  0  0  0  0
 25 27  1  0  0  0  0
 27 28  2  0  0  0  0
 22 28  1  0  0  0  0
M  END
> <ID>
CPD_1682

$$$$
CPD_1687
  Mrv1822 09091914012D          

 22 23  0  0  0  0            999 V2000
    3.5724    4.5375    0.0000 C   0  0  0  0  0  0  0  0  0  0  0  0
    3.5724    3.7125    0.0000 C   0  0  0  0  0  0  0  0  0  0  0  0
    4.2868    3.3000    0.0000 C   0  0  0  0  0  0  0  0  0  0  0  0
    4.2868    2.4750    0.0000 C   0  0  0  0  0  0  0  0  0  0  0  0
    4.2868    1.6500    0.0000 C   0  0  0  0  0  0  0  0  0  0  0  0
    4.2868    0.8250    0.0000 C   0  0  0  0  0  0  0  0  0  0  0  0
    5.0013    0.4125    0.0000 C   0  0  0  0  0  0  0  0  0  0  0  0
    5.0013   -0.4125    0.0000 C   0  0  0  0  0  0  0  0  0  0  0  0
    4.2868   -0.8250    0.0000 C   0  0  0  0  0  0  0  0  0  0  0  0
    3.5724   -0.4125    0.0000 C   0  0  0  0  0  0  0  0  0  0  0  0
    3.5724    0.4125    0.0000 C   0  0  0  0  0  0  0  0  0  0  0  0
    5.0013    3.7125    0.0000 N   0  0  0  0  0  0  0  0  0  0  0  0
    5.0013    4.5375    0.0000 C   0  0  0  0  0  0  0  0  0  0  0  0
    5.7158    3.3000    0.0000 C   0  0  0  0  0  0  0  0  0  0  0  0
    6.4302    3.7125    0.0000 C   0  0  0  0  0  0  0  0  0  0  0  0
    6.4302    4.5375    0.0000 C   0  0  0  0  0  0  0  0  0  0  0  0
    6.4302    5.3625    0.0000 N   0  0  0  0  0  0  0  0  0  0  0  0
    7.1447    3.3000    0.0000 C   0  0  0  0  0  0  0  0  0  0  0  0
    7.8592    3.7125    0.0000 Br  0  0  0  0  0  0  0  0  0  0  0  0
    7.1447    2.4750    0.0000 C   0  0  0  0  0  0  0  0  0  0  0  0
    6.4302    2.0625    0.0000 C   0  0  0  0  0  0  0  0  0  0  0  0
    5.7158    2.4750    0.0000 C   0  0  0  0  0  0  0  0  0  0  0  0
  1  2  1  0  0  0  0
  2  3  1  0  0  0  0
  3  4  1  0  0  0  0
  4  5  3  0  0  0  0
  5  6  1  0  0  0  0
  6  7  2  0  0  0  0
  7  8  1  0  0  0  0
  8  9  2  0  0  0  0
  9 10  1  0  0  0  0
 10 11  2  0  0  0  0
  6 11  1  0  0  0  0
  3 12  1  0  0  0  0
 12 13  1  0  0  0  0
 12 14  1  0  0  0  0
 14 15  2  0  0  0  0
 15 16  1  0  0  0  0
 16 17  3  0  0  0  0
 15 18  1  0  0  0  0
 18 19  1  0  0  0  0
 18 20  2  0  0  0  0
 20 21  1  0  0  0  0
 21 22  2  0  0  0  0
 14 22  1  0  0  0  0
M  END
> <ID>
CPD_1687

$$$$
CPD_1692
  Mrv1822 09091914012D          

 26 28  0  0  0  0            999 V2000
    1.4289   -3.3000    0.0000 C   0  0  0  0  0  0  0  0  0  0  0  0
    1.4289   -2.4750    0.0000 C   0  0  0  0  0  0  0  0  0  0  0  0
    0.7145   -2.0625    0.0000 N   0  0  0  0  0  0  0  0  0  0  0  0
    0.7145   -1.2375    0.0000 C   0  0  0  0  0  0  0  0  0  0  0  0
    0.0000   -0.8250    0.0000 C   0  0  0  0  0  0  0  0  0  0  0  0
    0.0000   -0.0000    0.0000 C   0  0  0  0  0  0  0  0  0  0  0  0
   -0.7145    0.4125    0.0000 F   0  0  0  0  0  0  0  0  0  0  0  0
    0.7145    0.4125    0.0000 C   0  0  0  0  0  0  0  0  0  0  0  0
    0.7145    1.2375    0.0000 C   0  0  0  0  0  0  0  0  0  0  0  0
    1.4289    0.0000    0.0000 C   0  0  0  0  0  0  0  0  0  0  0  0
    1.4289   -0.8250    0.0000 C   0  0  0  0  0  0  0  0  0  0  0  0
    0.0000   -2.4750    0.0000 S   0  0  0  0  0  0  0  0  0  0  0  0
    0.4125   -3.1895    0.0000 O   0  0  0  0  0  0  0  0  0  0  0  0
   -0.4125   -1.7605    0.0000 O   0  0  0  0  0  0  0  0  0  0  0  0
   -0.7145   -2.8875    0.0000 C   0  0  0  0  0  0  0  0  0  0  0  0
   -0.7145   -3.7125    0.0000 C   0  0  0  0  0  0  0  0  0  0  0  0
   -1.4289   -4.1250    0.0000 N   0  0  0  0  0  0  0  0  0  0  0  0
   -1.6005   -4.9320    0.0000 C   0  0  0  0  0  0  0  0  0  0  0  0
   -2.4209   -5.0182    0.0000 N   0  0  0  0  0  0  0  0  0  0  0  0
   -2.7565   -4.2645    0.0000 N   0  0  0  0  0  0  0  0  0  0  0  0
   -2.1434   -3.7125    0.0000 C   0  0  0  0  0  0  0  0  0  0  0  0
   -2.1434   -2.8875    0.0000 C   0  0  0  0  0  0  0  0  0  0  0  0
   -1.4289   -2.4750    0.0000 C   0  0  0  0  0  0  0  0  0  0  0  0
    2.1434   -2.0625    0.0000 C   0  0  0  0  0  0  0  0  0  0  0  0
    2.8579   -2.4750    0.0000 O   0  0  0  0  0  0  0  0  0  0  0  0
    2.1434   -1.2375    0.0000 O   0  0  0  0  0  0  0  0  0  0  0  0
  1  2  1  0  0  0  0
  2  3  1  0  0  0  0
  3  4  1  0  0  0  0
  4  5  2  0  0  0  0
  5  6  1  0  0  0  0
  6  7  1  0  0  0  0
  6  8  2  0  0  0  0
  8  9  1  0  0  0  0
  8 10  1  0  0  0  0
 10 11  2  0  0  0  0
  4 11  1  0  0  0  0
  3 12  1  0  0  0  0
 12 13  2  0  0  0  0
 12 14  2  0  0  0  0
 12 15  1  0  0  0  0
 15 16  2  0  0  0  0
 16 17  1  0  0  0  0
 17 18  1  0  0  0  0
 18 19  2  0  0  0  0
 19 20  1  0  0  0  0
 20 21  2  0  0  0  0
 17 21  1  0  0  0  0
 21 22  1  0  0  0  0
 22 23  2  0  0  0  0
 15 23  1  0  0  0  0
  2 24  1  0  0  0  0
 24 25  1  0  0  0  0
 24 26  2  0  0  0  0
M  END
> <ID>
CPD_1692

$$$$
CPD_1697
  Mrv1822 09091914012D          

 30 33  0  0  0  0            999 V2000
    4.9279   -0.5396    0.0000 C   0  0  0  0  0  0  0  0  0  0  0  0
    4.2135   -0.9521    0.0000 C   0  0  0  0  0  0  0  0  0  0  0  0
    3.4990   -0.5396    0.0000 C   0  0  0  0  0  0  0  0  0  0  0  0
    3.4990    0.2854    0.0000 N   0  0  0  0  0  0  0  0  0  0  0  0
    4.2135    0.6979    0.0000 C   0  0  0  0  0  0  0  0  0  0  0  0
    4.2135    1.5229    0.0000 C   0  0  0  0  0  0  0  0  0  0  0  0
    4.9279    1.9354    0.0000 C   0  0  0  0  0  0  0  0  0  0  0  0
    4.9279    2.7604    0.0000 F   0  0  0  0  0  0  0  0  0  0  0  0
    5.6424    1.5229    0.0000 C   0  0  0  0  0  0  0  0  0  0  0  0
    6.3569    1.9354    0.0000 C   0  0  0  0  0  0  0  0  0  0  0  0
    5.6424    0.6979    0.0000 C   0  0  0  0  0  0  0  0  0  0  0  0
    4.9279    0.2854    0.0000 C   0  0  0  0  0  0  0  0  0  0  0  0
    2.7845    0.6979    0.0000 S   0  0  0  0  0  0  0  0  0  0  0  0
    2.3720   -0.0165    0.0000 O   0  0  0  0  0  0  0  0  0  0  0  0
    3.1970    1.4124    0.0000 O   0  0  0  0  0  0  0  0  0  0  0  0
    2.0701    1.1104    0.0000 C   0  0  0  0  0  0  0  0  0  0  0  0
    1.3556    0.6979    0.0000 C   0  0  0  0  0  0  0  0  0  0  0  0
    0.6411    1.1104    0.0000 N   0  0  0  0  0  0  0  0  0  0  0  0
   -0.1435    0.8555    0.0000 C   0  0  0  0  0  0  0  0  0  0  0  0
   -0.6284    1.5229    0.0000 N   0  0  0  0  0  0  0  0  0  0  0  0
   -0.1435    2.1904    0.0000 N   0  0  0  0  0  0  0  0  0  0  0  0
    0.6411    1.9354    0.0000 C   0  0  0  0  0  0  0  0  0  0  0  0
    1.3556    2.3479    0.0000 C   0  0  0  0  0  0  0  0  0  0  0  0
    2.0701    1.9354    0.0000 C   0  0  0  0  0  0  0  0  0  0  0  0
    4.2135   -1.7771    0.0000 C   0  0  0  0  0  0  0  0  0  0  0  0
    4.9279   -2.1896    0.0000 C   0  0  0  0  0  0  0  0  0  0  0  0
    4.9279   -3.0146    0.0000 C   0  0  0  0  0  0  0  0  0  0  0  0
    4.2135   -3.4271    0.0000 C   0  0  0  0  0  0  0  0  0  0  0  0
    3.4990   -3.0146    0.0000 C   0  0  0  0  0  0  0  0  0  0  0  0
    3.4990   -2.1896    0.0000 C   0  0  0  0  0  0  0  0  0  0  0  0
  1  2  1  0  0  0  0
  2  3  1  0  0  0  0
  3  4  1  0  0  0  0
  4  5  1  0  0  0  0
  5  6  2  0  0  0  0
  6  7  1  0  0  0  0
  7  8  1  0  0  0  0
  7  9  2  0  0  0  0
  9 10  1  0  0  0  0
  9 11  1  0  0  0  0
 11 12  2  0  0  0  0
  5 12  1  0  0  0  0
  4 13  1  0  0  0  0
 13 14  2  0  0  0  0
 13 15  2  0  0  0  0
 13 16  1  0  0  0  0
 16 17  2  0  0  0  0
 17 18  1  0  0  0  0
 18 19  1  0  0  0  0
 19 20  2  0  0  0  0
 20 21  1  0  0  0  0
 21 22  2  0  0  0  0
 18 22  1  0  0  0  0
 22 23  1  0  0  0  0
 23 24  2  0  0  0  0
 16 24  1  0  0  0  0
  2 25  1  0  0  0  0
 25 26  2  0  0  0  0
 26 27  1  0  0  0  0
 27 28  2  0  0  0  0
 28 29  1  0  0  0  0
 29 30  2  0  0  0  0
 25 30  1  0  0  0  0
M  END
> <ID>
CPD_1697

$$$$
CPD_1702
  Mrv1822 09091914012D          

 35 39  0  0  0  0            999 V2000
   11.3582    3.1729    0.0000 C   0  0  0  0  0  0  0  0  0  0  0  0
   10.6437    2.7604    0.0000 C   0  0  0  0  0  0  0  0  0  0  0  0
   10.6437    1.9354    0.0000 O   0  0  0  0  0  0  0  0  0  0  0  0
    9.9292    1.5229    0.0000 C   0  0  0  0  0  0  0  0  0  0  0  0
    9.9292    0.6979    0.0000 C   0  0  0  0  0  0  0  0  0  0  0  0
    9.2148    0.2854    0.0000 C   0  0  0  0  0  0  0  0  0  0  0  0
    8.5003    0.6979    0.0000 C   0  0  0  0  0  0  0  0  0  0  0  0
    8.5003    1.5229    0.0000 C   0  0  0  0  0  0  0  0  0  0  0  0
    9.2148    1.9354    0.0000 C   0  0  0  0  0  0  0  0  0  0  0  0
    7.7858    0.2854    0.0000 N   0  0  0  0  0  0  0  0  0  0  0  0
    7.7858   -0.5396    0.0000 C   0  0  0  0  0  0  0  0  0  0  0  0
    7.0714   -0.9521    0.0000 C   0  0  0  0  0  0  0  0  0  0  0  0
    6.3569   -1.3646    0.0000 C   0  0  0  0  0  0  0  0  0  0  0  0
    5.6424   -1.7771    0.0000 C   0  0  0  0  0  0  0  0  0  0  0  0
    5.6424   -2.6021    0.0000 C   0  0  0  0  0  0  0  0  0  0  0  0
    4.9279   -3.0146    0.0000 N   0  0  0  0  0  0  0  0  0  0  0  0
    4.2135   -2.6021    0.0000 C   0  0  0  0  0  0  0  0  0  0  0  0
    3.4990   -3.0146    0.0000 O   0  0  0  0  0  0  0  0  0  0  0  0
    2.7845   -2.6021    0.0000 C   0  0  0  0  0  0  0  0  0  0  0  0
    2.7845   -1.7771    0.0000 C   0  0  0  0  0  0  0  0  0  0  0  0
    3.4990   -1.3646    0.0000 C   0  0  0  0  0  0  0  0  0  0  0  0
    4.2135   -1.7771    0.0000 C   0  0  0  0  0  0  0  0  0  0  0  0
    4.9279   -1.3646    0.0000 C   0  0  0  0  0  0  0  0  0  0  0  0
    7.0714    0.6979    0.0000 S   0  0  0  0  0  0  0  0  0  0  0  0
    6.6589   -0.0165    0.0000 O   0  0  0  0  0  0  0  0  0  0  0  0
    7.4839    1.4124    0.0000 O   0  0  0  0  0  0  0  0  0  0  0  0
    6.3569    1.1104    0.0000 C   0  0  0  0  0  0  0  0  0  0  0  0
    5.6424    0.6979    0.0000 C   0  0  0  0  0  0  0  0  0  0  0  0
    4.9279    1.1104    0.0000 N   0  0  0  0  0  0  0  0  0  0  0  0
    4.1433    0.8555    0.0000 C   0  0  0  0  0  0  0  0  0  0  0  0
    3.6584    1.5229    0.0000 N   0  0  0  0  0  0  0  0  0  0  0  0
    4.1433    2.1904    0.0000 N   0  0  0  0  0  0  0  0  0  0  0  0
    4.9279    1.9354    0.0000 C   0  0  0  0  0  0  0  0  0  0  0  0
    5.6424    2.3479    0.0000 C   0  0  0  0  0  0  0  0  0  0  0  0
    6.3569    1.9354    0.0000 C   0  0  0  0  0  0  0  0  0  0  0  0
  1  2  1  0  0  0  0
  2  3  1  0  0  0  0
  3  4  1  0  0  0  0
  4  5  2  0  0  0  0
  5  6  1  0  0  0  0
  6  7  2  0  0  0  0
  7  8  1  0  0  0  0
  8  9  2  0  0  0  0
  4  9  1  0  0  0  0
  7 10  1  0  0  0  0
 10 11  1  0  0  0  0
 11 12  1  0  0  0  0
 12 13  3  0  0  0  0
 13 14  1  0  0  0  0
 14 15  2  0  0  0  0
 15 16  1  0  0  0  0
 16 17  2  0  0  0  0
 17 18  1  0  0  0  0
 18 19  1  0  0  0  0
 19 20  1  0  0  0  0
 20 21  1  0  0  0  0
 21 22  1  0  0  0  0
 17 22  1  0  0  0  0
 22 23  2  0  0  0  0
 14 23  1  0  0  0  0
 10 24  1  0  0  0  0
 24 25  2  0  0  0  0
 24 26  2  0  0  0  0
 24 27  1  0  0  0  0
 27 28  2  0  0  0  0
 28 29  1  0  0  0  0
 29 30  1  0  0  0  0
 30 31  2  0  0  0  0
 31 32  1  0  0  0  0
 32 33  2  0  0  0  0
 29 33  1  0  0  0  0
 33 34  1  0  0  0  0
 34 35  2  0  0  0  0
 27 35  1  0  0  0  0
M  END
> <ID>
CPD_1702

$$$$
CPD_1707
  Mrv1822 09091914012D          

 37 42  0  0  0  0            999 V2000
    3.5062   -5.0663    0.0000 C   0  0  0  0  0  0  0  0  0  0  0  0
    2.6857   -4.9800    0.0000 C   0  0  0  0  0  0  0  0  0  0  0  0
    2.1337   -5.5931    0.0000 N   0  0  0  0  0  0  0  0  0  0  0  0
    1.3800   -5.2576    0.0000 N   0  0  0  0  0  0  0  0  0  0  0  0
    1.4662   -4.4371    0.0000 C   0  0  0  0  0  0  0  0  0  0  0  0
    0.9142   -3.8240    0.0000 C   0  0  0  0  0  0  0  0  0  0  0  0
    1.1691   -3.0394    0.0000 C   0  0  0  0  0  0  0  0  0  0  0  0
    1.9761   -2.8679    0.0000 C   0  0  0  0  0  0  0  0  0  0  0  0
    2.5281   -3.4809    0.0000 C   0  0  0  0  0  0  0  0  0  0  0  0
    2.2732   -4.2656    0.0000 N   0  0  0  0  0  0  0  0  0  0  0  0
    2.2310   -2.0832    0.0000 S   0  0  0  0  0  0  0  0  0  0  0  0
    3.0157   -2.3382    0.0000 O   0  0  0  0  0  0  0  0  0  0  0  0
    1.4464   -1.8283    0.0000 O   0  0  0  0  0  0  0  0  0  0  0  0
    2.4860   -1.2986    0.0000 N   0  0  0  0  0  0  0  0  0  0  0  0
    3.3065   -1.3848    0.0000 C   0  0  0  0  0  0  0  0  0  0  0  0
    3.7914   -0.7174    0.0000 C   0  0  0  0  0  0  0  0  0  0  0  0
    4.6119   -0.8036    0.0000 C   0  0  0  0  0  0  0  0  0  0  0  0
    5.0968   -0.1362    0.0000 F   0  0  0  0  0  0  0  0  0  0  0  0
    4.9474   -1.5573    0.0000 C   0  0  0  0  0  0  0  0  0  0  0  0
    4.4625   -2.2248    0.0000 C   0  0  0  0  0  0  0  0  0  0  0  0
    4.7981   -2.9784    0.0000 F   0  0  0  0  0  0  0  0  0  0  0  0
    3.6420   -2.1385    0.0000 C   0  0  0  0  0  0  0  0  0  0  0  0
    1.9339   -0.6855    0.0000 C   0  0  0  0  0  0  0  0  0  0  0  0
    1.3819   -1.2986    0.0000 C   0  0  0  0  0  0  0  0  0  0  0  0
    0.8299   -1.9117    0.0000 C   0  0  0  0  0  0  0  0  0  0  0  0
    2.6014   -0.2006    0.0000 C   0  0  0  0  0  0  0  0  0  0  0  0
    3.4084   -0.3721    0.0000 C   0  0  0  0  0  0  0  0  0  0  0  0
    3.9604    0.2410    0.0000 C   0  0  0  0  0  0  0  0  0  0  0  0
    3.7054    1.0256    0.0000 C   0  0  0  0  0  0  0  0  0  0  0  0
    2.8985    1.1971    0.0000 C   0  0  0  0  0  0  0  0  0  0  0  0
    2.3464    0.5840    0.0000 C   0  0  0  0  0  0  0  0  0  0  0  0
    1.5214    0.5840    0.0000 C   0  0  0  0  0  0  0  0  0  0  0  0
    1.2665   -0.2006    0.0000 C   0  0  0  0  0  0  0  0  0  0  0  0
    0.4595   -0.3721    0.0000 C   0  0  0  0  0  0  0  0  0  0  0  0
   -0.0925    0.2410    0.0000 C   0  0  0  0  0  0  0  0  0  0  0  0
    0.1624    1.0256    0.0000 C   0  0  0  0  0  0  0  0  0  0  0  0
    0.9694    1.1971    0.0000 C   0  0  0  0  0  0  0  0  0  0  0  0
  1  2  1  0  0  0  0
  2  3  2  0  0  0  0
  3  4  1  0  0  0  0
  4  5  2  0  0  0  0
  5  6  1  0  0  0  0
  6  7  2  0  0  0  0
  7  8  1  0  0  0  0
  8  9  2  0  0  0  0
  9 10  1  0  0  0  0
  2 10  1  0  0  0  0
  5 10  1  0  0  0  0
  8 11  1  0  0  0  0
 11 12  2  0  0  0  0
 11 13  2  0  0  0  0
 11 14  1  0  0  0  0
 14 15  1  0  0  0  0
 15 16  2  0  0  0  0
 16 17  1  0  0  0  0
 17 18  1  0  0  0  0
 17 19  2  0  0  0  0
 19 20  1  0  0  0  0
 20 21  1  0  0  0  0
 20 22  2  0  0  0  0
 15 22  1  0  0  0  0
 14 23  1  0  0  0  0
 23 24  1  0  0  0  0
 24 25  3  0  0  0  0
 23 26  1  0  0  0  0
 26 27  2  0  0  0  0
 27 28  1  0  0  0  0
 28 29  2  0  0  0  0
 29 30  1  0  0  0  0
 30 31  2  0  0  0  0
 26 31  1  0  0  0  0
 31 32  1  0  0  0  0
 32 33  2  0  0  0  0
 23 33  1  0  0  0  0
 33 34  1  0  0  0  0
 34 35  2  0  0  0  0
 35 36  1  0  0  0  0
 36 37  2  0  0  0  0
 32 37  1  0  0  0  0
M  END
> <ID>
CPD_1707

$$$$
CPD_1712
  Mrv1822 09091914012D          

 32 35  0  0  0  0            999 V2000
    4.2135    1.5229    0.0000 C   0  0  0  0  0  0  0  0  0  0  0  0
    4.2135    0.6979    0.0000 C   0  0  0  0  0  0  0  0  0  0  0  0
    4.9279    0.2854    0.0000 C   0  0  0  0  0  0  0  0  0  0  0  0
    5.6424    0.6979    0.0000 C   0  0  0  0  0  0  0  0  0  0  0  0
    5.6424    1.5229    0.0000 N   0  0  0  0  0  0  0  0  0  0  0  0
    6.3569    1.9354    0.0000 C   0  0  0  0  0  0  0  0  0  0  0  0
    6.3569    2.7604    0.0000 C   0  0  0  0  0  0  0  0  0  0  0  0
    7.0714    1.5229    0.0000 C   0  0  0  0  0  0  0  0  0  0  0  0
    7.0714    0.6979    0.0000 C   0  0  0  0  0  0  0  0  0  0  0  0
    6.3569    0.2854    0.0000 C   0  0  0  0  0  0  0  0  0  0  0  0
    3.4990    0.2854    0.0000 N   0  0  0  0  0  0  0  0  0  0  0  0
    3.4990   -0.5396    0.0000 C   0  0  0  0  0  0  0  0  0  0  0  0
    4.2135   -0.9521    0.0000 C   0  0  0  0  0  0  0  0  0  0  0  0
    4.2135   -1.7771    0.0000 C   0  0  0  0  0  0  0  0  0  0  0  0
    4.9279   -2.1896    0.0000 F   0  0  0  0  0  0  0  0  0  0  0  0
    3.4990   -2.1896    0.0000 C   0  0  0  0  0  0  0  0  0  0  0  0
    2.7845   -1.7771    0.0000 C   0  0  0  0  0  0  0  0  0  0  0  0
    2.0701   -2.1896    0.0000 F   0  0  0  0  0  0  0  0  0  0  0  0
    2.7845   -0.9521    0.0000 C   0  0  0  0  0  0  0  0  0  0  0  0
    2.7845    0.6979    0.0000 S   0  0  0  0  0  0  0  0  0  0  0  0
    3.1970    1.4124    0.0000 O   0  0  0  0  0  0  0  0  0  0  0  0
    2.3720   -0.0165    0.0000 O   0  0  0  0  0  0  0  0  0  0  0  0
    2.0701    1.1104    0.0000 C   0  0  0  0  0  0  0  0  0  0  0  0
    1.3556    0.6979    0.0000 C   0  0  0  0  0  0  0  0  0  0  0  0
    0.6411    1.1104    0.0000 N   0  0  0  0  0  0  0  0  0  0  0  0
   -0.1435    0.8555    0.0000 C   0  0  0  0  0  0  0  0  0  0  0  0
   -0.3984    0.0709    0.0000 C   0  0  0  0  0  0  0  0  0  0  0  0
   -0.6284    1.5229    0.0000 N   0  0  0  0  0  0  0  0  0  0  0  0
   -0.1435    2.1904    0.0000 N   0  0  0  0  0  0  0  0  0  0  0  0
    0.6411    1.9354    0.0000 C   0  0  0  0  0  0  0  0  0  0  0  0
    1.3556    2.3479    0.0000 C   0  0  0  0  0  0  0  0  0  0  0  0
    2.0701    1.9354    0.0000 C   0  0  0  0  0  0  0  0  0  0  0  0
  1  2  1  0  0  0  0
  2  3  1  0  0  0  0
  3  4  1  0  0  0  0
  4  5  2  0  0  0  0
  5  6  1  0  0  0  0
  6  7  1  0  0  0  0
  6  8  2  0  0  0  0
  8  9  1  0  0  0  0
  9 10  2  0  0  0  0
  4 10  1  0  0  0  0
  2 11  1  0  0  0  0
 11 12  1  0  0  0  0
 12 13  2  0  0  0  0
 13 14  1  0  0  0  0
 14 15  1  0  0  0  0
 14 16  2  0  0  0  0
 16 17  1  0  0  0  0
 17 18  1  0  0  0  0
 17 19  2  0  0  0  0
 12 19  1  0  0  0  0
 11 20  1  0  0  0  0
 20 21  2  0  0  0  0
 20 22  2  0  0  0  0
 20 23  1  0  0  0  0
 23 24  2  0  0  0  0
 24 25  1  0  0  0  0
 25 26  1  0  0  0  0
 26 27  1  0  0  0  0
 26 28  2  0  0  0  0
 28 29  1  0  0  0  0
 29 30  2  0  0  0  0
 25 30  1  0  0  0  0
 30 31  1  0  0  0  0
 31 32  2  0  0  0  0
 23 32  1  0  0  0  0
M  END
> <ID>
CPD_1712

$$$$
CPD_1717
  Mrv1822 09091914012D          

 27 29  0  0  0  0            999 V2000
   -0.8212    1.8777    0.0000 C   0  0  0  0  0  0  0  0  0  0  0  0
   -0.1067    2.2902    0.0000 C   0  0  0  0  0  0  0  0  0  0  0  0
   -0.1067    3.1152    0.0000 O   0  0  0  0  0  0  0  0  0  0  0  0
    0.6078    1.8777    0.0000 C   0  0  0  0  0  0  0  0  0  0  0  0
    1.3222    2.2902    0.0000 C   0  0  0  0  0  0  0  0  0  0  0  0
    1.3222    3.1152    0.0000 C   0  0  0  0  0  0  0  0  0  0  0  0
    2.0367    1.8777    0.0000 N   0  0  0  0  0  0  0  0  0  0  0  0
    2.0367    1.0527    0.0000 C   0  0  0  0  0  0  0  0  0  0  0  0
    1.3222    0.6402    0.0000 N   0  0  0  0  0  0  0  0  0  0  0  0
    0.6078    1.0527    0.0000 C   0  0  0  0  0  0  0  0  0  0  0  0
    2.7512    0.6402    0.0000 N   0  0  0  0  0  0  0  0  0  0  0  0
    3.4656    1.0527    0.0000 C   0  0  0  0  0  0  0  0  0  0  0  0
    3.4656    1.8777    0.0000 C   0  0  0  0  0  0  0  0  0  0  0  0
    4.1801    2.2902    0.0000 O   0  0  0  0  0  0  0  0  0  0  0  0
    2.7512    2.2902    0.0000 O   0  0  0  0  0  0  0  0  0  0  0  0
    4.1801    0.6402    0.0000 C   0  0  0  0  0  0  0  0  0  0  0  0
    4.8946    1.0527    0.0000 C   0  0  0  0  0  0  0  0  0  0  0  0
    5.6091    0.6402    0.0000 C   0  0  0  0  0  0  0  0  0  0  0  0
    5.6091   -0.1848    0.0000 C   0  0  0  0  0  0  0  0  0  0  0  0
    6.3235   -0.5973    0.0000 Br  0  0  0  0  0  0  0  0  0  0  0  0
    4.8946   -0.5973    0.0000 C   0  0  0  0  0  0  0  0  0  0  0  0
    4.1801   -0.1848    0.0000 C   0  0  0  0  0  0  0  0  0  0  0  0
    2.7512   -0.1848    0.0000 C   0  0  0  0  0  0  0  0  0  0  0  0
    3.4186   -0.6697    0.0000 C   0  0  0  0  0  0  0  0  0  0  0  0
    3.1637   -1.4544    0.0000 C   0  0  0  0  0  0  0  0  0  0  0  0
    2.3387   -1.4544    0.0000 C   0  0  0  0  0  0  0  0  0  0  0  0
    2.0837   -0.6697    0.0000 O   0  0  0  0  0  0  0  0  0  0  0  0
  1  2  1  0  0  0  0
  2  3  2  0  0  0  0
  2  4  1  0  0  0  0
  4  5  2  0  0  0  0
  5  6  1  0  0  0  0
  5  7  1  0  0  0  0
  7  8  2  0  0  0  0
  8  9  1  0  0  0  0
  9 10  2  0  0  0  0
  4 10  1  0  0  0  0
  8 11  1  0  0  0  0
 11 12  1  0  0  0  0
 12 13  1  0  0  0  0
 13 14  1  0  0  0  0
 13 15  2  0  0  0  0
 12 16  1  0  0  0  0
 16 17  2  0  0  0  0
 17 18  1  0  0  0  0
 18 19  2  0  0  0  0
 19 20  1  0  0  0  0
 19 21  1  0  0  0  0
 21 22  2  0  0  0  0
 16 22  1  0  0  0  0
 11 23  1  0  0  0  0
 23 24  2  0  0  0  0
 24 25  1  0  0  0  0
 25 26  2  0  0  0  0
 26 27  1  0  0  0  0
 23 27  1  0  0  0  0
M  END
> <ID>
CPD_1717

$$$$
CPD_1722
  Mrv1822 09091914012D          

 33 37  0  0  0  0            999 V2000
    0.4507    2.7649    0.0000 C   0  0  0  0  0  0  0  0  0  0  0  0
   -0.1014    2.1518    0.0000 C   0  0  0  0  0  0  0  0  0  0  0  0
    0.1536    1.3672    0.0000 C   0  0  0  0  0  0  0  0  0  0  0  0
   -0.3984    0.7541    0.0000 C   0  0  0  0  0  0  0  0  0  0  0  0
   -0.1435   -0.0305    0.0000 N   0  0  0  0  0  0  0  0  0  0  0  0
   -0.6284   -0.6979    0.0000 C   0  0  0  0  0  0  0  0  0  0  0  0
   -1.4534   -0.6979    0.0000 O   0  0  0  0  0  0  0  0  0  0  0  0
   -0.1435   -1.3654    0.0000 C   0  0  0  0  0  0  0  0  0  0  0  0
   -0.8580   -1.7779    0.0000 C   0  0  0  0  0  0  0  0  0  0  0  0
   -1.5724   -1.3654    0.0000 C   0  0  0  0  0  0  0  0  0  0  0  0
   -1.8274   -0.5808    0.0000 O   0  0  0  0  0  0  0  0  0  0  0  0
   -2.2869   -1.7779    0.0000 C   0  0  0  0  0  0  0  0  0  0  0  0
   -2.3732   -2.5984    0.0000 C   0  0  0  0  0  0  0  0  0  0  0  0
   -3.1801   -2.7699    0.0000 C   0  0  0  0  0  0  0  0  0  0  0  0
   -3.5926   -2.0554    0.0000 C   0  0  0  0  0  0  0  0  0  0  0  0
   -3.0406   -1.4423    0.0000 O   0  0  0  0  0  0  0  0  0  0  0  0
    0.1921   -2.1191    0.0000 N   0  0  0  0  0  0  0  0  0  0  0  0
   -0.2929   -2.7865    0.0000 C   0  0  0  0  0  0  0  0  0  0  0  0
   -1.1179   -2.7865    0.0000 C   0  0  0  0  0  0  0  0  0  0  0  0
   -1.3728   -3.5711    0.0000 C   0  0  0  0  0  0  0  0  0  0  0  0
   -0.7054   -4.0560    0.0000 N   0  0  0  0  0  0  0  0  0  0  0  0
   -0.0379   -3.5711    0.0000 N   0  0  0  0  0  0  0  0  0  0  0  0
    0.7467   -3.8261    0.0000 C   0  0  0  0  0  0  0  0  0  0  0  0
    1.4818   -3.4515    0.0000 C   0  0  0  0  0  0  0  0  0  0  0  0
    1.8563   -4.1866    0.0000 O   0  0  0  0  0  0  0  0  0  0  0  0
    1.1212   -4.5611    0.0000 C   0  0  0  0  0  0  0  0  0  0  0  0
    0.6411   -1.1104    0.0000 C   0  0  0  0  0  0  0  0  0  0  0  0
    0.6411   -0.2854    0.0000 C   0  0  0  0  0  0  0  0  0  0  0  0
    1.3556    0.1271    0.0000 C   0  0  0  0  0  0  0  0  0  0  0  0
    2.0701   -0.2854    0.0000 C   0  0  0  0  0  0  0  0  0  0  0  0
    2.0701   -1.1104    0.0000 C   0  0  0  0  0  0  0  0  0  0  0  0
    2.7845   -1.5229    0.0000 Br  0  0  0  0  0  0  0  0  0  0  0  0
    1.3556   -1.5229    0.0000 C   0  0  0  0  0  0  0  0  0  0  0  0
  1  2  1  0  0  0  0
  2  3  1  0  0  0  0
  3  4  1  0  0  0  0
  4  5  1  0  0  0  0
  5  6  1  0  0  0  0
  6  7  2  0  0  0  0
  6  8  1  0  0  0  0
  8  9  1  0  0  0  0
  9 10  1  0  0  0  0
 10 11  2  0  0  0  0
 10 12  1  0  0  0  0
 12 13  2  0  0  0  0
 13 14  1  0  0  0  0
 14 15  2  0  0  0  0
 15 16  1  0  0  0  0
 12 16  1  0  0  0  0
  8 17  1  0  0  0  0
 17 18  1  0  0  0  0
 18 19  2  0  0  0  0
 19 20  1  0  0  0  0
 20 21  2  0  0  0  0
 21 22  1  0  0  0  0
 18 22  1  0  0  0  0
 22 23  1  0  0  0  0
 23 24  1  0  0  0  0
 24 25  1  0  0  0  0
 25 26  1  0  0  0  0
 23 26  1  0  0  0  0
  8 27  1  0  0  0  0
 27 28  2  0  0  0  0
  5 28  1  0  0  0  0
 28 29  1  0  0  0  0
 29 30  2  0  0  0  0
 30 31  1  0  0  0  0
 31 32  1  0  0  0  0
 31 33  2  0  0  0  0
 27 33  1  0  0  0  0
M  END
> <ID>
CPD_1722

$$$$
CPD_1727
  Mrv1822 09091914012D          

 20 21  0  0  0  0            999 V2000
    0.7145    1.2375    0.0000 C   0  0  0  0  0  0  0  0  0  0  0  0
    1.4289    0.8250    0.0000 O   0  0  0  0  0  0  0  0  0  0  0  0
    1.4289    0.0000    0.0000 C   0  0  0  0  0  0  0  0  0  0  0  0
    2.1434   -0.4125    0.0000 C   0  0  0  0  0  0  0  0  0  0  0  0
    2.1434   -1.2375    0.0000 C   0  0  0  0  0  0  0  0  0  0  0  0
    2.8579   -1.6500    0.0000 C   0  0  0  0  0  0  0  0  0  0  0  0
    2.8579   -2.4750    0.0000 N   0  0  0  0  0  0  0  0  0  0  0  0
    3.5724   -2.8875    0.0000 C   0  0  0  0  0  0  0  0  0  0  0  0
    3.5724   -3.7125    0.0000 C   0  0  0  0  0  0  0  0  0  0  0  0
    4.2868   -4.1250    0.0000 C   0  0  0  0  0  0  0  0  0  0  0  0
    4.2868   -4.9500    0.0000 C   0  0  0  0  0  0  0  0  0  0  0  0
    3.5724   -5.3625    0.0000 C   0  0  0  0  0  0  0  0  0  0  0  0
    3.5724   -6.1875    0.0000 O   0  0  0  0  0  0  0  0  0  0  0  0
    4.2868   -6.6000    0.0000 C   0  0  0  0  0  0  0  0  0  0  0  0
    2.8579   -4.9500    0.0000 C   0  0  0  0  0  0  0  0  0  0  0  0
    2.8579   -4.1250    0.0000 C   0  0  0  0  0  0  0  0  0  0  0  0
    2.1434   -3.7125    0.0000 Br  0  0  0  0  0  0  0  0  0  0  0  0
    2.1434   -2.8875    0.0000 C   0  0  0  0  0  0  0  0  0  0  0  0
    1.4289   -2.4750    0.0000 C   0  0  0  0  0  0  0  0  0  0  0  0
    1.4289   -1.6500    0.0000 N   0  0  0  0  0  0  0  0  0  0  0  0
  1  2  1  0  0  0  0
  2  3  1  0  0  0  0
  3  4  1  0  0  0  0
  4  5  1  0  0  0  0
  5  6  1  0  0  0  0
  6  7  1  0  0  0  0
  7  8  1  0  0  0  0
  8  9  1  0  0  0  0
  9 10  2  0  0  0  0
 10 11  1  0  0  0  0
 11 12  2  0  0  0  0
 12 13  1  0  0  0  0
 13 14  1  0  0  0  0
 12 15  1  0  0  0  0
 15 16  2  0  0  0  0
  9 16  1  0  0  0  0
 16 17  1  0  0  0  0
  7 18  1  0  0  0  0
 18 19  1  0  0  0  0
 19 20  1  0  0  0  0
  5 20  1  0  0  0  0
M  END
> <ID>
CPD_1727

$$$$
CPD_1732
  Mrv1822 09091914012D          

 26 28  0  0  0  0            999 V2000
   -2.1434   -2.8875    0.0000 C   0  0  0  0  0  0  0  0  0  0  0  0
   -1.4289   -2.4750    0.0000 O   0  0  0  0  0  0  0  0  0  0  0  0
   -1.4289   -1.6500    0.0000 C   0  0  0  0  0  0  0  0  0  0  0  0
   -0.7145   -1.2375    0.0000 C   0  0  0  0  0  0  0  0  0  0  0  0
   -0.7145   -0.4125    0.0000 C   0  0  0  0  0  0  0  0  0  0  0  0
   -1.4289   -0.0000    0.0000 C   0  0  0  0  0  0  0  0  0  0  0  0
   -1.4289    0.8250    0.0000 N   0  0  0  0  0  0  0  0  0  0  0  0
   -0.7145    1.2375    0.0000 C   0  0  0  0  0  0  0  0  0  0  0  0
    0.0000    0.8250    0.0000 C   0  0  0  0  0  0  0  0  0  0  0  0
    0.0000   -0.0000    0.0000 N   0  0  0  0  0  0  0  0  0  0  0  0
    0.7145   -0.4125    0.0000 C   0  0  0  0  0  0  0  0  0  0  0  0
    0.7145   -1.2375    0.0000 C   0  0  0  0  0  0  0  0  0  0  0  0
    1.3819   -1.7224    0.0000 C   0  0  0  0  0  0  0  0  0  0  0  0
    2.1665   -1.4675    0.0000 C   0  0  0  0  0  0  0  0  0  0  0  0
    2.7796   -2.0195    0.0000 O   0  0  0  0  0  0  0  0  0  0  0  0
    1.1270   -2.5070    0.0000 N   0  0  0  0  0  0  0  0  0  0  0  0
    0.3020   -2.5070    0.0000 N   0  0  0  0  0  0  0  0  0  0  0  0
    0.0470   -1.7224    0.0000 N   0  0  0  0  0  0  0  0  0  0  0  0
    1.6119   -3.1745    0.0000 C   0  0  0  0  0  0  0  0  0  0  0  0
    2.4324   -3.0882    0.0000 N   0  0  0  0  0  0  0  0  0  0  0  0
    2.9173   -3.7557    0.0000 C   0  0  0  0  0  0  0  0  0  0  0  0
    3.7378   -3.6695    0.0000 C   0  0  0  0  0  0  0  0  0  0  0  0
    2.5817   -4.5094    0.0000 C   0  0  0  0  0  0  0  0  0  0  0  0
    1.7613   -4.5956    0.0000 C   0  0  0  0  0  0  0  0  0  0  0  0
    1.4257   -5.3493    0.0000 C   0  0  0  0  0  0  0  0  0  0  0  0
    1.2763   -3.9282    0.0000 N   0  0  0  0  0  0  0  0  0  0  0  0
  1  2  1  0  0  0  0
  2  3  1  0  0  0  0
  3  4  1  0  0  0  0
  4  5  1  0  0  0  0
  5  6  1  0  0  0  0
  6  7  1  0  0  0  0
  7  8  1  0  0  0  0
  8  9  1  0  0  0  0
  9 10  1  0  0  0  0
  5 10  1  0  0  0  0
 10 11  1  0  0  0  0
 11 12  1  0  0  0  0
 12 13  2  0  0  0  0
 13 14  1  0  0  0  0
 14 15  1  0  0  0  0
 13 16  1  0  0  0  0
 16 17  1  0  0  0  0
 17 18  2  0  0  0  0
 12 18  1  0  0  0  0
 16 19  1  0  0  0  0
 19 20  2  0  0  0  0
 20 21  1  0  0  0  0
 21 22  1  0  0  0  0
 21 23  2  0  0  0  0
 23 24  1  0  0  0  0
 24 25  1  0  0  0  0
 24 26  2  0  0  0  0
 19 26  1  0  0  0  0
M  END
> <ID>
CPD_1732

$$$$
CPD_1737
  Mrv1822 09091914012D          

 35 39  0  0  1  0            999 V2000
   -1.5269   -0.5558    0.0000 C   0  0  0  0  0  0  0  0  0  0  0  0
   -0.7145   -0.4125    0.0000 C   0  0  0  0  0  0  0  0  0  0  0  0
   -0.9966    0.3627    0.0000 C   0  0  0  0  0  0  0  0  0  0  0  0
   -0.7145   -1.2375    0.0000 C   0  0  0  0  0  0  0  0  0  0  0  0
    0.0000   -1.6500    0.0000 C   0  0  0  0  0  0  0  0  0  0  0  0
   -0.5303   -2.2820    0.0000 C   0  0  0  0  0  0  0  0  0  0  0  0
    0.5303   -2.2820    0.0000 C   0  0  0  0  0  0  0  0  0  0  0  0
    1.3428   -2.1387    0.0000 C   0  0  0  0  0  0  0  0  0  0  0  0
    1.8731   -2.7707    0.0000 C   0  0  0  0  0  0  0  0  0  0  0  0
    1.5909   -3.5460    0.0000 C   0  0  0  0  0  0  0  0  0  0  0  0
    0.7784   -3.6892    0.0000 C   0  0  0  0  0  0  0  0  0  0  0  0
    0.2481   -3.0572    0.0000 C   0  0  0  0  0  0  0  0  0  0  0  0
    0.7145   -1.2375    0.0000 C   0  0  0  0  0  0  0  0  0  0  0  0
    0.7145   -0.4125    0.0000 C   0  0  0  0  0  0  0  0  0  0  0  0
    1.4289   -0.0000    0.0000 C   0  0  0  0  0  0  0  0  0  0  0  0
    2.1434   -0.4125    0.0000 C   0  0  0  0  0  0  0  0  0  0  0  0
    2.1434   -1.2375    0.0000 C   0  0  0  0  0  0  0  0  0  0  0  0
    1.4289   -1.6500    0.0000 C   0  0  0  0  0  0  0  0  0  0  0  0
    0.0000   -0.0000    0.0000 N   0  0  0  0  0  0  0  0  0  0  0  0
    0.0000    0.8250    0.0000 C   0  0  0  0  0  0  0  0  0  0  0  0
    0.7145    1.2375    0.0000 O   0  0  0  0  0  0  0  0  0  0  0  0
   -0.7145    1.2375    0.0000 C   0  0  0  0  0  0  0  0  0  0  0  0
   -0.7145    2.0625    0.0000 S   0  0  0  0  0  0  0  0  0  0  0  0
   -1.4289    2.4750    0.0000 C   0  0  0  0  0  0  0  0  0  0  0  0
   -2.1826    2.1394    0.0000 N   0  0  0  0  0  0  0  0  0  0  0  0
   -2.7346    2.7525    0.0000 N   0  0  0  0  0  0  0  0  0  0  0  0
   -2.3221    3.4670    0.0000 C   0  0  0  0  0  0  0  0  0  0  0  0
   -2.6577    4.2207    0.0000 N   0  0  0  0  0  0  0  0  0  0  0  0
   -3.4782    4.3069    0.0000 C   0  0  0  0  0  0  0  0  0  0  0  0
   -4.0302    3.6938    0.0000 C   0  0  0  0  0  0  0  0  0  0  0  0
   -4.7839    4.0294    0.0000 C   0  0  0  0  0  0  0  0  0  0  0  0
   -4.6977    4.8499    0.0000 C   0  0  1  0  0  0  0  0  0  0  0  0
   -5.3108    5.4019    0.0000 N   0  0  0  0  0  0  0  0  0  0  0  0
   -3.8907    5.0214    0.0000 C   0  0  0  0  0  0  0  0  0  0  0  0
   -1.5152    3.2955    0.0000 S   0  0  0  0  0  0  0  0  0  0  0  0
  1  2  1  0  0  0  0
  2  3  1  0  0  0  0
  2  4  1  0  0  0  0
  4  5  1  0  0  0  0
  5  6  1  0  0  0  0
  5  7  1  0  0  0  0
  7  8  2  0  0  0  0
  8  9  1  0  0  0  0
  9 10  2  0  0  0  0
 10 11  1  0  0  0  0
 11 12  2  0  0  0  0
  7 12  1  0  0  0  0
  5 13  1  0  0  0  0
 13 14  2  0  0  0  0
 14 15  1  0  0  0  0
 15 16  2  0  0  0  0
 16 17  1  0  0  0  0
 17 18  2  0  0  0  0
 13 18  1  0  0  0  0
 14 19  1  0  0  0  0
  2 19  1  0  0  0  0
 19 20  1  0  0  0  0
 20 21  2  0  0  0  0
 20 22  1  0  0  0  0
 22 23  1  0  0  0  0
 23 24  1  0  0  0  0
 24 25  2  0  0  0  0
 25 26  1  0  0  0  0
 26 27  2  0  0  0  0
 27 28  1  0  0  0  0
 28 29  1  0  0  0  0
 29 30  1  0  0  0  0
 30 31  1  0  0  0  0
 32 31  1  0  0  0  0
 32 33  1  1  0  0  0
 32 34  1  0  0  0  0
 29 34  1  0  0  0  0
 27 35  1  0  0  0  0
 24 35  1  0  0  0  0
M  END
> <ID>
CPD_1737

$$$$
CPD_1742
  Mrv1822 09091914012D          

 26 28  0  0  1  0            999 V2000
   -0.3984    0.7541    0.0000 C   0  0  0  0  0  0  0  0  0  0  0  0
   -0.1435   -0.0305    0.0000 N   0  0  0  0  0  0  0  0  0  0  0  0
   -0.6284   -0.6979    0.0000 C   0  0  0  0  0  0  0  0  0  0  0  0
   -1.4534   -0.6979    0.0000 N   0  0  0  0  0  0  0  0  0  0  0  0
   -1.8659   -1.4124    0.0000 C   0  0  0  0  0  0  0  0  0  0  0  0
   -2.6909   -1.4124    0.0000 C   0  0  1  0  0  0  0  0  0  0  0  0
   -3.1034   -2.1269    0.0000 C   0  0  0  0  0  0  0  0  0  0  0  0
   -3.9284   -2.1269    0.0000 N   0  0  0  0  0  0  0  0  0  0  0  0
   -4.3409   -1.4124    0.0000 C   0  0  0  0  0  0  0  0  0  0  0  0
   -3.9284   -0.6979    0.0000 C   0  0  0  0  0  0  0  0  0  0  0  0
   -3.1034   -0.6979    0.0000 O   0  0  0  0  0  0  0  0  0  0  0  0
   -4.3409   -2.8414    0.0000 C   0  0  0  0  0  0  0  0  0  0  0  0
   -3.9284   -3.5558    0.0000 O   0  0  0  0  0  0  0  0  0  0  0  0
   -5.1659   -2.8414    0.0000 O   0  0  0  0  0  0  0  0  0  0  0  0
   -5.5784   -3.5558    0.0000 C   0  0  0  0  0  0  0  0  0  0  0  0
   -5.9909   -4.2703    0.0000 C   0  0  0  0  0  0  0  0  0  0  0  0
   -4.8640   -3.9683    0.0000 C   0  0  0  0  0  0  0  0  0  0  0  0
   -6.2929   -3.1433    0.0000 C   0  0  0  0  0  0  0  0  0  0  0  0
   -0.1435   -1.3654    0.0000 N   0  0  0  0  0  0  0  0  0  0  0  0
    0.6411   -1.1104    0.0000 C   0  0  0  0  0  0  0  0  0  0  0  0
    0.6411   -0.2854    0.0000 C   0  0  0  0  0  0  0  0  0  0  0  0
    1.3556    0.1271    0.0000 C   0  0  0  0  0  0  0  0  0  0  0  0
    2.0701   -0.2854    0.0000 C   0  0  0  0  0  0  0  0  0  0  0  0
    2.7845    0.1271    0.0000 C   0  0  0  0  0  0  0  0  0  0  0  0
    2.0701   -1.1104    0.0000 C   0  0  0  0  0  0  0  0  0  0  0  0
    1.3556   -1.5229    0.0000 C   0  0  0  0  0  0  0  0  0  0  0  0
  1  2  1  0  0  0  0
  2  3  1  0  0  0  0
  3  4  1  0  0  0  0
  4  5  1  0  0  0  0
  6  5  1  1  0  0  0
  6  7  1  0  0  0  0
  7  8  1  0  0  0  0
  8  9  1  0  0  0  0
  9 10  1  0  0  0  0
 10 11  1  0  0  0  0
  6 11  1  0  0  0  0
  8 12  1  0  0  0  0
 12 13  2  0  0  0  0
 12 14  1  0  0  0  0
 14 15  1  0  0  0  0
 15 16  1  0  0  0  0
 15 17  1  0  0  0  0
 15 18  1  0  0  0  0
  3 19  2  0  0  0  0
 19 20  1  0  0  0  0
 20 21  2  0  0  0  0
  2 21  1  0  0  0  0
 21 22  1  0  0  0  0
 22 23  2  0  0  0  0
 23 24  1  0  0  0  0
 23 25  1  0  0  0  0
 25 26  2  0  0  0  0
 20 26  1  0  0  0  0
M  END
> <ID>
CPD_1742

$$$$
CPD_1747
  Mrv1822 09091914012D          

 30 33  0  0  0  0            999 V2000
   -1.5127   -2.6048    0.0000 C   0  0  0  0  0  0  0  0  0  0  0  0
   -1.2578   -3.3894    0.0000 N   0  0  0  0  0  0  0  0  0  0  0  0
   -1.7427   -4.0569    0.0000 C   0  0  0  0  0  0  0  0  0  0  0  0
   -2.5677   -4.0569    0.0000 N   0  0  0  0  0  0  0  0  0  0  0  0
   -2.9802   -4.7714    0.0000 C   0  0  0  0  0  0  0  0  0  0  0  0
   -3.8052   -4.7714    0.0000 C   0  0  0  0  0  0  0  0  0  0  0  0
   -4.2901   -4.1039    0.0000 C   0  0  0  0  0  0  0  0  0  0  0  0
   -5.0748   -4.3589    0.0000 C   0  0  0  0  0  0  0  0  0  0  0  0
   -5.0748   -5.1839    0.0000 C   0  0  0  0  0  0  0  0  0  0  0  0
   -4.2901   -5.4388    0.0000 O   0  0  0  0  0  0  0  0  0  0  0  0
   -5.7892   -5.5964    0.0000 C   0  0  0  0  0  0  0  0  0  0  0  0
   -6.5037   -5.1839    0.0000 C   0  0  0  0  0  0  0  0  0  0  0  0
   -6.5037   -4.3589    0.0000 C   0  0  0  0  0  0  0  0  0  0  0  0
   -7.2182   -3.9464    0.0000 N   0  0  0  0  0  0  0  0  0  0  0  0
   -7.9326   -4.3589    0.0000 C   0  0  0  0  0  0  0  0  0  0  0  0
   -7.9326   -5.1839    0.0000 O   0  0  0  0  0  0  0  0  0  0  0  0
   -8.6471   -3.9464    0.0000 O   0  0  0  0  0  0  0  0  0  0  0  0
   -9.3616   -4.3589    0.0000 C   0  0  0  0  0  0  0  0  0  0  0  0
  -10.0761   -4.7714    0.0000 C   0  0  0  0  0  0  0  0  0  0  0  0
   -8.9491   -5.0733    0.0000 C   0  0  0  0  0  0  0  0  0  0  0  0
   -9.7741   -3.6444    0.0000 C   0  0  0  0  0  0  0  0  0  0  0  0
   -5.7892   -3.9464    0.0000 C   0  0  0  0  0  0  0  0  0  0  0  0
   -1.2578   -4.7243    0.0000 N   0  0  0  0  0  0  0  0  0  0  0  0
   -0.4732   -4.4694    0.0000 C   0  0  0  0  0  0  0  0  0  0  0  0
   -0.4732   -3.6444    0.0000 C   0  0  0  0  0  0  0  0  0  0  0  0
    0.2413   -3.2319    0.0000 C   0  0  0  0  0  0  0  0  0  0  0  0
    0.9558   -3.6444    0.0000 C   0  0  0  0  0  0  0  0  0  0  0  0
    1.6702   -3.2319    0.0000 C   0  0  0  0  0  0  0  0  0  0  0  0
    0.9558   -4.4694    0.0000 C   0  0  0  0  0  0  0  0  0  0  0  0
    0.2413   -4.8819    0.0000 C   0  0  0  0  0  0  0  0  0  0  0  0
  1  2  1  0  0  0  0
  2  3  1  0  0  0  0
  3  4  1  0  0  0  0
  4  5  1  0  0  0  0
  5  6  1  0  0  0  0
  6  7  2  0  0  0  0
  7  8  1  0  0  0  0
  8  9  2  0  0  0  0
  9 10  1  0  0  0  0
  6 10  1  0  0  0  0
  9 11  1  0  0  0  0
 11 12  2  0  0  0  0
 12 13  1  0  0  0  0
 13 14  1  0  0  0  0
 14 15  1  0  0  0  0
 15 16  2  0  0  0  0
 15 17  1  0  0  0  0
 17 18  1  0  0  0  0
 18 19  1  0  0  0  0
 18 20  1  0  0  0  0
 18 21  1  0  0  0  0
 13 22  2  0  0  0  0
  8 22  1  0  0  0  0
  3 23  2  0  0  0  0
 23 24  1  0  0  0  0
 24 25  2  0  0  0  0
  2 25  1  0  0  0  0
 25 26  1  0  0  0  0
 26 27  2  0  0  0  0
 27 28  1  0  0  0  0
 27 29  1  0  0  0  0
 29 30  2  0  0  0  0
 24 30  1  0  0  0  0
M  END
> <ID>
CPD_1747

$$$$
CPD_1752
  Mrv1822 09091914012D          

 24 26  0  0  0  0            999 V2000
   -0.2775   -4.1636    0.0000 C   0  0  0  0  0  0  0  0  0  0  0  0
    0.5475   -4.1636    0.0000 C   0  0  0  0  0  0  0  0  0  0  0  0
    0.9600   -3.4491    0.0000 N   0  0  0  0  0  0  0  0  0  0  0  0
    1.7850   -3.4491    0.0000 C   0  0  0  0  0  0  0  0  0  0  0  0
    2.1975   -4.1636    0.0000 C   0  0  0  0  0  0  0  0  0  0  0  0
    3.0225   -4.1636    0.0000 N   0  0  0  0  0  0  0  0  0  0  0  0
    3.4350   -4.8781    0.0000 C   0  0  0  0  0  0  0  0  0  0  0  0
    3.0994   -5.6317    0.0000 N   0  0  0  0  0  0  0  0  0  0  0  0
    3.7125   -6.1838    0.0000 C   0  0  0  0  0  0  0  0  0  0  0  0
    4.4270   -5.7713    0.0000 C   0  0  0  0  0  0  0  0  0  0  0  0
    5.1414   -6.1838    0.0000 C   0  0  0  0  0  0  0  0  0  0  0  0
    5.1414   -7.0088    0.0000 C   0  0  0  0  0  0  0  0  0  0  0  0
    5.8559   -7.4213    0.0000 C   0  0  0  0  0  0  0  0  0  0  0  0
    4.4270   -7.4213    0.0000 C   0  0  0  0  0  0  0  0  0  0  0  0
    3.7125   -7.0088    0.0000 C   0  0  0  0  0  0  0  0  0  0  0  0
    4.2554   -4.9643    0.0000 N   0  0  0  0  0  0  0  0  0  0  0  0
    4.8075   -4.3512    0.0000 C   0  0  0  0  0  0  0  0  0  0  0  0
    0.5475   -2.7346    0.0000 C   0  0  0  0  0  0  0  0  0  0  0  0
   -0.2775   -2.7346    0.0000 C   0  0  0  0  0  0  0  0  0  0  0  0
   -0.6900   -2.0202    0.0000 C   0  0  0  0  0  0  0  0  0  0  0  0
   -0.2775   -1.3057    0.0000 C   0  0  0  0  0  0  0  0  0  0  0  0
   -0.6900   -0.5912    0.0000 N   0  0  0  0  0  0  0  0  0  0  0  0
    0.5475   -1.3057    0.0000 C   0  0  0  0  0  0  0  0  0  0  0  0
    0.9600   -2.0202    0.0000 C   0  0  0  0  0  0  0  0  0  0  0  0
  1  2  1  0  0  0  0
  2  3  1  0  0  0  0
  3  4  1  0  0  0  0
  4  5  1  0  0  0  0
  5  6  1  0  0  0  0
  6  7  1  0  0  0  0
  7  8  2  0  0  0  0
  8  9  1  0  0  0  0
  9 10  2  0  0  0  0
 10 11  1  0  0  0  0
 11 12  2  0  0  0  0
 12 13  1  0  0  0  0
 12 14  1  0  0  0  0
 14 15  2  0  0  0  0
  9 15  1  0  0  0  0
 10 16  1  0  0  0  0
  7 16  1  0  0  0  0
 16 17  1  0  0  0  0
  3 18  1  0  0  0  0
 18 19  2  0  0  0  0
 19 20  1  0  0  0  0
 20 21  2  0  0  0  0
 21 22  1  0  0  0  0
 21 23  1  0  0  0  0
 23 24  2  0  0  0  0
 18 24  1  0  0  0  0
M  END
> <ID>
CPD_1752

$$$$
CPD_1757
  Mrv1822 09091914012D          

 27 30  0  0  1  0            999 V2000
   -0.9373   -1.5316    0.0000 C   0  0  0  0  0  0  0  0  0  0  0  0
   -0.2228   -1.9441    0.0000 C   0  0  0  0  0  0  0  0  0  0  0  0
   -0.2228   -2.7691    0.0000 O   0  0  0  0  0  0  0  0  0  0  0  0
    0.4917   -1.5316    0.0000 C   0  0  0  0  0  0  0  0  0  0  0  0
    0.4917   -0.7066    0.0000 C   0  0  0  0  0  0  0  0  0  0  0  0
    1.2062   -0.2941    0.0000 C   0  0  0  0  0  0  0  0  0  0  0  0
    1.9206   -0.7066    0.0000 C   0  0  0  0  0  0  0  0  0  0  0  0
    2.5656   -0.1923    0.0000 O   0  0  0  0  0  0  0  0  0  0  0  0
    3.3700   -0.3758    0.0000 C   0  0  0  0  0  0  0  0  0  0  0  0
    3.7279   -1.1191    0.0000 C   0  0  0  0  0  0  0  0  0  0  0  0
    3.3700   -1.8624    0.0000 N   0  0  0  0  0  0  0  0  0  0  0  0
    3.8843   -2.5075    0.0000 C   0  0  0  0  0  0  0  0  0  0  0  0
    3.5829   -3.2754    0.0000 C   0  0  2  0  0  0  0  0  0  0  0  0
    2.7671   -3.3984    0.0000 N   0  0  0  0  0  0  0  0  0  0  0  0
    4.0973   -3.9204    0.0000 C   0  0  0  0  0  0  0  0  0  0  0  0
    3.7959   -4.6884    0.0000 C   0  0  0  0  0  0  0  0  0  0  0  0
    2.9974   -4.8960    0.0000 C   0  0  0  0  0  0  0  0  0  0  0  0
    2.9481   -5.7195    0.0000 N   0  0  0  0  0  0  0  0  0  0  0  0
    3.7161   -6.0209    0.0000 C   0  0  0  0  0  0  0  0  0  0  0  0
    4.2400   -5.3837    0.0000 C   0  0  0  0  0  0  0  0  0  0  0  0
    5.0539   -5.5188    0.0000 C   0  0  0  0  0  0  0  0  0  0  0  0
    5.3438   -6.2912    0.0000 C   0  0  0  0  0  0  0  0  0  0  0  0
    4.8198   -6.9284    0.0000 C   0  0  0  0  0  0  0  0  0  0  0  0
    4.0059   -6.7933    0.0000 C   0  0  0  0  0  0  0  0  0  0  0  0
    2.5656   -2.0460    0.0000 C   0  0  0  0  0  0  0  0  0  0  0  0
    1.9206   -1.5316    0.0000 C   0  0  0  0  0  0  0  0  0  0  0  0
    1.2062   -1.9441    0.0000 C   0  0  0  0  0  0  0  0  0  0  0  0
  1  2  1  0  0  0  0
  2  3  1  0  0  0  0
  2  4  1  0  0  0  0
  4  5  2  0  0  0  0
  5  6  1  0  0  0  0
  6  7  2  0  0  0  0
  7  8  1  0  0  0  0
  8  9  1  0  0  0  0
  9 10  1  0  0  0  0
 10 11  1  0  0  0  0
 11 12  1  0  0  0  0
 13 12  1  0  0  0  0
 13 14  1  1  0  0  0
 13 15  1  0  0  0  0
 15 16  1  0  0  0  0
 16 17  2  0  0  0  0
 17 18  1  0  0  0  0
 18 19  1  0  0  0  0
 19 20  2  0  0  0  0
 16 20  1  0  0  0  0
 20 21  1  0  0  0  0
 21 22  2  0  0  0  0
 22 23  1  0  0  0  0
 23 24  2  0  0  0  0
 19 24  1  0  0  0  0
 11 25  1  0  0  0  0
 25 26  1  0  0  0  0
  7 26  1  0  0  0  0
 26 27  2  0  0  0  0
  4 27  1  0  0  0  0
M  END
> <ID>
CPD_1757

$$$$
CPD_1762
  Mrv1822 09091914012D          

 30 33  0  0  1  0            999 V2000
   -0.9373   -1.5316    0.0000 C   0  0  0  0  0  0  0  0  0  0  0  0
   -0.2228   -1.9441    0.0000 C   0  0  0  0  0  0  0  0  0  0  0  0
   -0.2228   -2.7691    0.0000 O   0  0  0  0  0  0  0  0  0  0  0  0
    0.4917   -1.5316    0.0000 C   0  0  0  0  0  0  0  0  0  0  0  0
    0.4917   -0.7066    0.0000 C   0  0  0  0  0  0  0  0  0  0  0  0
    1.2062   -0.2941    0.0000 C   0  0  0  0  0  0  0  0  0  0  0  0
    1.9206   -0.7066    0.0000 C   0  0  0  0  0  0  0  0  0  0  0  0
    2.5656   -0.1923    0.0000 O   0  0  0  0  0  0  0  0  0  0  0  0
    3.3700   -0.3758    0.0000 C   0  0  0  0  0  0  0  0  0  0  0  0
    3.7279   -1.1191    0.0000 C   0  0  0  0  0  0  0  0  0  0  0  0
    3.3700   -1.8624    0.0000 N   0  0  0  0  0  0  0  0  0  0  0  0
    3.8843   -2.5075    0.0000 C   0  0  0  0  0  0  0  0  0  0  0  0
    4.7001   -2.3845    0.0000 C   0  0  1  0  0  0  0  0  0  0  0  0
    5.0801   -1.6522    0.0000 C   0  0  0  0  0  0  0  0  0  0  0  0
    5.8940   -1.7874    0.0000 C   0  0  0  0  0  0  0  0  0  0  0  0
    6.0170   -2.6032    0.0000 C   0  0  0  0  0  0  0  0  0  0  0  0
    5.2791   -2.9722    0.0000 N   0  0  0  0  0  0  0  0  0  0  0  0
    5.1439   -3.7861    0.0000 C   0  0  0  0  0  0  0  0  0  0  0  0
    5.7812   -4.3100    0.0000 O   0  0  0  0  0  0  0  0  0  0  0  0
    4.3716   -4.0759    0.0000 O   0  0  0  0  0  0  0  0  0  0  0  0
    4.2364   -4.8898    0.0000 C   0  0  0  0  0  0  0  0  0  0  0  0
    4.8736   -5.4138    0.0000 C   0  0  0  0  0  0  0  0  0  0  0  0
    5.6460   -5.1239    0.0000 C   0  0  0  0  0  0  0  0  0  0  0  0
    6.2833   -5.6479    0.0000 C   0  0  0  0  0  0  0  0  0  0  0  0
    6.1481   -6.4617    0.0000 C   0  0  0  0  0  0  0  0  0  0  0  0
    5.3757   -6.7516    0.0000 C   0  0  0  0  0  0  0  0  0  0  0  0
    4.7385   -6.2276    0.0000 C   0  0  0  0  0  0  0  0  0  0  0  0
    2.5656   -2.0460    0.0000 C   0  0  0  0  0  0  0  0  0  0  0  0
    1.9206   -1.5316    0.0000 C   0  0  0  0  0  0  0  0  0  0  0  0
    1.2062   -1.9441    0.0000 C   0  0  0  0  0  0  0  0  0  0  0  0
  1  2  1  0  0  0  0
  2  3  1  0  0  0  0
  2  4  1  0  0  0  0
  4  5  2  0  0  0  0
  5  6  1  0  0  0  0
  6  7  2  0  0  0  0
  7  8  1  0  0  0  0
  8  9  1  0  0  0  0
  9 10  1  0  0  0  0
 10 11  1  0  0  0  0
 11 12  1  0  0  0  0
 13 12  1  1  0  0  0
 13 14  1  0  0  0  0
 14 15  1  0  0  0  0
 15 16  1  0  0  0  0
 16 17  1  0  0  0  0
 13 17  1  0  0  0  0
 17 18  1  0  0  0  0
 18 19  2  0  0  0  0
 18 20  1  0  0  0  0
 20 21  1  0  0  0  0
 21 22  1  0  0  0  0
 22 23  2  0  0  0  0
 23 24  1  0  0  0  0
 24 25  2  0  0  0  0
 25 26  1  0  0  0  0
 26 27  2  0  0  0  0
 22 27  1  0  0  0  0
 11 28  1  0  0  0  0
 28 29  1  0  0  0  0
  7 29  1  0  0  0  0
 29 30  2  0  0  0  0
  4 30  1  0  0  0  0
M  END
> <ID>
CPD_1762

$$$$
CPD_1767
  Mrv1822 09091914012D          

 26 29  0  0  0  0            999 V2000
   -0.9373   -1.5316    0.0000 C   0  0  0  0  0  0  0  0  0  0  0  0
   -0.2228   -1.9441    0.0000 C   0  0  0  0  0  0  0  0  0  0  0  0
   -0.2228   -2.7691    0.0000 O   0  0  0  0  0  0  0  0  0  0  0  0
    0.4917   -1.5316    0.0000 C   0  0  0  0  0  0  0  0  0  0  0  0
    0.4917   -0.7066    0.0000 C   0  0  0  0  0  0  0  0  0  0  0  0
    1.2062   -0.2941    0.0000 C   0  0  0  0  0  0  0  0  0  0  0  0
    1.9206   -0.7066    0.0000 C   0  0  0  0  0  0  0  0  0  0  0  0
    2.5656   -0.1923    0.0000 O   0  0  0  0  0  0  0  0  0  0  0  0
    3.3700   -0.3758    0.0000 C   0  0  0  0  0  0  0  0  0  0  0  0
    3.7279   -1.1191    0.0000 C   0  0  0  0  0  0  0  0  0  0  0  0
    3.3700   -1.8624    0.0000 N   0  0  0  0  0  0  0  0  0  0  0  0
    3.8843   -2.5075    0.0000 C   0  0  0  0  0  0  0  0  0  0  0  0
    4.7001   -2.3845    0.0000 C   0  0  0  0  0  0  0  0  0  0  0  0
    5.2145   -3.0295    0.0000 C   0  0  0  0  0  0  0  0  0  0  0  0
    6.0303   -2.9065    0.0000 C   0  0  0  0  0  0  0  0  0  0  0  0
    6.3317   -2.1386    0.0000 C   0  0  0  0  0  0  0  0  0  0  0  0
    7.1475   -2.0156    0.0000 C   0  0  0  0  0  0  0  0  0  0  0  0
    7.6619   -2.6606    0.0000 C   0  0  0  0  0  0  0  0  0  0  0  0
    7.3604   -3.4286    0.0000 C   0  0  0  0  0  0  0  0  0  0  0  0
    6.5447   -3.5516    0.0000 C   0  0  0  0  0  0  0  0  0  0  0  0
    5.8173   -1.4936    0.0000 C   0  0  0  0  0  0  0  0  0  0  0  0
    5.0015   -1.6165    0.0000 C   0  0  0  0  0  0  0  0  0  0  0  0
    4.4871   -0.9715    0.0000 N   0  0  0  0  0  0  0  0  0  0  0  0
    2.5656   -2.0460    0.0000 C   0  0  0  0  0  0  0  0  0  0  0  0
    1.9206   -1.5316    0.0000 C   0  0  0  0  0  0  0  0  0  0  0  0
    1.2062   -1.9441    0.0000 C   0  0  0  0  0  0  0  0  0  0  0  0
  1  2  1  0  0  0  0
  2  3  1  0  0  0  0
  2  4  1  0  0  0  0
  4  5  2  0  0  0  0
  5  6  1  0  0  0  0
  6  7  2  0  0  0  0
  7  8  1  0  0  0  0
  8  9  1  0  0  0  0
  9 10  1  0  0  0  0
 10 11  1  0  0  0  0
 11 12  1  0  0  0  0
 12 13  1  0  0  0  0
 13 14  2  0  0  0  0
 14 15  1  0  0  0  0
 15 16  2  0  0  0  0
 16 17  1  0  0  0  0
 17 18  2  0  0  0  0
 18 19  1  0  0  0  0
 19 20  2  0  0  0  0
 15 20  1  0  0  0  0
 16 21  1  0  0  0  0
 21 22  2  0  0  0  0
 13 22  1  0  0  0  0
 22 23  1  0  0  0  0
 11 24  1  0  0  0  0
 24 25  1  0  0  0  0
  7 25  1  0  0  0  0
 25 26  2  0  0  0  0
  4 26  1  0  0  0  0
M  END
> <ID>
CPD_1767

$$$$
CPD_1772
  Mrv1822 09091914012D          

 34 37  0  0  0  0            999 V2000
    0.1536    1.3672    0.0000 C   0  0  0  0  0  0  0  0  0  0  0  0
   -0.3984    0.7541    0.0000 C   0  0  0  0  0  0  0  0  0  0  0  0
   -0.1435   -0.0305    0.0000 N   0  0  0  0  0  0  0  0  0  0  0  0
   -0.6284   -0.6979    0.0000 C   0  0  0  0  0  0  0  0  0  0  0  0
   -1.4534   -0.6979    0.0000 O   0  0  0  0  0  0  0  0  0  0  0  0
   -0.1435   -1.3654    0.0000 C   0  0  0  0  0  0  0  0  0  0  0  0
    0.1921   -2.1191    0.0000 C   0  0  0  0  0  0  0  0  0  0  0  0
    1.0125   -2.2053    0.0000 C   0  0  0  0  0  0  0  0  0  0  0  0
    1.6800   -1.7204    0.0000 O   0  0  0  0  0  0  0  0  0  0  0  0
    1.3481   -2.9590    0.0000 C   0  0  0  0  0  0  0  0  0  0  0  0
    2.1686   -3.0452    0.0000 C   0  0  0  0  0  0  0  0  0  0  0  0
    2.5041   -3.7989    0.0000 C   0  0  0  0  0  0  0  0  0  0  0  0
    2.0192   -4.4663    0.0000 C   0  0  0  0  0  0  0  0  0  0  0  0
    2.3548   -5.2200    0.0000 N   0  0  0  0  0  0  0  0  0  0  0  0
    1.1987   -4.3801    0.0000 C   0  0  0  0  0  0  0  0  0  0  0  0
    0.8632   -3.6264    0.0000 C   0  0  0  0  0  0  0  0  0  0  0  0
   -0.8580   -1.7779    0.0000 N   0  0  0  0  0  0  0  0  0  0  0  0
   -1.5396   -1.3131    0.0000 C   0  0  0  0  0  0  0  0  0  0  0  0
   -2.3280   -1.5563    0.0000 C   0  0  0  0  0  0  0  0  0  0  0  0
   -2.6294   -2.3243    0.0000 C   0  0  0  0  0  0  0  0  0  0  0  0
   -2.2169   -3.0388    0.0000 N   0  0  0  0  0  0  0  0  0  0  0  0
   -1.4011   -3.1617    0.0000 C   0  0  0  0  0  0  0  0  0  0  0  0
   -0.7963   -2.6006    0.0000 C   0  0  0  0  0  0  0  0  0  0  0  0
   -2.6816   -3.7204    0.0000 C   0  0  0  0  0  0  0  0  0  0  0  0
   -2.3237   -4.4637    0.0000 O   0  0  0  0  0  0  0  0  0  0  0  0
   -3.5043   -3.6588    0.0000 N   0  0  0  0  0  0  0  0  0  0  0  0
   -3.9691   -4.3404    0.0000 C   0  0  0  0  0  0  0  0  0  0  0  0
    0.6411   -1.1104    0.0000 C   0  0  0  0  0  0  0  0  0  0  0  0
    0.6411   -0.2854    0.0000 C   0  0  0  0  0  0  0  0  0  0  0  0
    1.3556    0.1271    0.0000 C   0  0  0  0  0  0  0  0  0  0  0  0
    2.0701   -0.2854    0.0000 C   0  0  0  0  0  0  0  0  0  0  0  0
    2.0701   -1.1104    0.0000 C   0  0  0  0  0  0  0  0  0  0  0  0
    2.7845   -1.5229    0.0000 Br  0  0  0  0  0  0  0  0  0  0  0  0
    1.3556   -1.5229    0.0000 C   0  0  0  0  0  0  0  0  0  0  0  0
  1  2  1  0  0  0  0
  2  3  1  0  0  0  0
  3  4  1  0  0  0  0
  4  5  2  0  0  0  0
  4  6  1  0  0  0  0
  6  7  1  0  0  0  0
  7  8  1  0  0  0  0
  8  9  2  0  0  0  0
  8 10  1  0  0  0  0
 10 11  2  0  0  0  0
 11 12  1  0  0  0  0
 12 13  2  0  0  0  0
 13 14  1  0  0  0  0
 13 15  1  0  0  0  0
 15 16  2  0  0  0  0
 10 16  1  0  0  0  0
  6 17  1  0  0  0  0
 17 18  1  0  0  0  0
 18 19  1  0  0  0  0
 19 20  1  0  0  0  0
 20 21  1  0  0  0  0
 21 22  1  0  0  0  0
 22 23  1  0  0  0  0
 17 23  1  0  0  0  0
 21 24  1  0  0  0  0
 24 25  2  0  0  0  0
 24 26  1  0  0  0  0
 26 27  1  0  0  0  0
  6 28  1  0  0  0  0
 28 29  2  0  0  0  0
  3 29  1  0  0  0  0
 29 30  1  0  0  0  0
 30 31  2  0  0  0  0
 31 32  1  0  0  0  0
 32 33  1  0  0  0  0
 32 34  2  0  0  0  0
 28 34  1  0  0  0  0
M  END
> <ID>
CPD_1772

$$$$
CPD_1777
  Mrv1822 09091914012D          

 20 21  0  0  0  0            999 V2000
    0.0000   -1.6500    0.0000 C   0  0  0  0  0  0  0  0  0  0  0  0
    0.0000   -2.4750    0.0000 C   0  0  0  0  0  0  0  0  0  0  0  0
    0.7145   -2.8875    0.0000 C   0  0  0  0  0  0  0  0  0  0  0  0
    0.7145   -3.7125    0.0000 C   0  0  0  0  0  0  0  0  0  0  0  0
    1.4289   -4.1250    0.0000 C   0  0  0  0  0  0  0  0  0  0  0  0
    1.4289   -4.9500    0.0000 N   0  0  0  0  0  0  0  0  0  0  0  0
    2.1434   -5.3625    0.0000 C   0  0  0  0  0  0  0  0  0  0  0  0
    2.8579   -4.9500    0.0000 C   0  0  0  0  0  0  0  0  0  0  0  0
    2.8579   -4.1250    0.0000 Cl  0  0  0  0  0  0  0  0  0  0  0  0
    3.5724   -5.3625    0.0000 C   0  0  0  0  0  0  0  0  0  0  0  0
    4.2868   -4.9500    0.0000 Cl  0  0  0  0  0  0  0  0  0  0  0  0
    3.5724   -6.1875    0.0000 C   0  0  0  0  0  0  0  0  0  0  0  0
    4.2868   -6.6000    0.0000 O   0  0  0  0  0  0  0  0  0  0  0  0
    2.8579   -6.6000    0.0000 C   0  0  0  0  0  0  0  0  0  0  0  0
    2.1434   -6.1875    0.0000 C   0  0  0  0  0  0  0  0  0  0  0  0
    0.0000   -4.1250    0.0000 C   0  0  0  0  0  0  0  0  0  0  0  0
   -0.7145   -3.7125    0.0000 C   0  0  0  0  0  0  0  0  0  0  0  0
   -1.4289   -4.1250    0.0000 C   0  0  0  0  0  0  0  0  0  0  0  0
   -0.7145   -2.8875    0.0000 C   0  0  0  0  0  0  0  0  0  0  0  0
   -1.4289   -2.4750    0.0000 F   0  0  0  0  0  0  0  0  0  0  0  0
  1  2  1  0  0  0  0
  2  3  2  0  0  0  0
  3  4  1  0  0  0  0
  4  5  1  0  0  0  0
  5  6  1  0  0  0  0
  6  7  1  0  0  0  0
  7  8  2  0  0  0  0
  8  9  1  0  0  0  0
  8 10  1  0  0  0  0
 10 11  1  0  0  0  0
 10 12  2  0  0  0  0
 12 13  1  0  0  0  0
 12 14  1  0  0  0  0
 14 15  2  0  0  0  0
  7 15  1  0  0  0  0
  4 16  2  0  0  0  0
 16 17  1  0  0  0  0
 17 18  1  0  0  0  0
 17 19  2  0  0  0  0
  2 19  1  0  0  0  0
 19 20  1  0  0  0  0
M  END
> <ID>
CPD_1777

$$$$
CPD_1782
  Mrv1822 09091914012D          

 35 38  0  0  0  0            999 V2000
   -2.1434   -1.2375    0.0000 C   0  0  0  0  0  0  0  0  0  0  0  0
   -1.4289   -1.6500    0.0000 C   0  0  0  0  0  0  0  0  0  0  0  0
   -0.7145   -1.2375    0.0000 O   0  0  0  0  0  0  0  0  0  0  0  0
    0.0000   -1.6500    0.0000 C   0  0  0  0  0  0  0  0  0  0  0  0
    0.0000   -2.4750    0.0000 O   0  0  0  0  0  0  0  0  0  0  0  0
    0.7145   -1.2375    0.0000 C   0  0  0  0  0  0  0  0  0  0  0  0
    1.4289   -1.6500    0.0000 N   0  0  0  0  0  0  0  0  0  0  0  0
    2.1434   -1.2375    0.0000 C   0  0  0  0  0  0  0  0  0  0  0  0
    2.8579   -1.6500    0.0000 C   0  0  0  0  0  0  0  0  0  0  0  0
    3.6116   -1.3144    0.0000 C   0  0  0  0  0  0  0  0  0  0  0  0
    4.1636   -1.9275    0.0000 C   0  0  0  0  0  0  0  0  0  0  0  0
    3.7511   -2.6420    0.0000 C   0  0  0  0  0  0  0  0  0  0  0  0
    2.9441   -2.4705    0.0000 O   0  0  0  0  0  0  0  0  0  0  0  0
    1.4289   -2.4750    0.0000 C   0  0  0  0  0  0  0  0  0  0  0  0
    0.7615   -2.9599    0.0000 C   0  0  0  0  0  0  0  0  0  0  0  0
    1.0164   -3.7445    0.0000 C   0  0  0  0  0  0  0  0  0  0  0  0
    0.5315   -4.4120    0.0000 O   0  0  0  0  0  0  0  0  0  0  0  0
    1.8414   -3.7445    0.0000 N   0  0  0  0  0  0  0  0  0  0  0  0
    2.0964   -2.9599    0.0000 C   0  0  0  0  0  0  0  0  0  0  0  0
    2.9214   -2.9599    0.0000 O   0  0  0  0  0  0  0  0  0  0  0  0
    2.3264   -4.4120    0.0000 C   0  0  0  0  0  0  0  0  0  0  0  0
    3.1468   -4.3257    0.0000 C   0  0  0  0  0  0  0  0  0  0  0  0
    3.6318   -4.9932    0.0000 C   0  0  0  0  0  0  0  0  0  0  0  0
    3.2962   -5.7469    0.0000 C   0  0  0  0  0  0  0  0  0  0  0  0
    3.7811   -6.4143    0.0000 O   0  0  0  0  0  0  0  0  0  0  0  0
    3.4456   -7.1680    0.0000 C   0  0  0  0  0  0  0  0  0  0  0  0
    2.4757   -5.8331    0.0000 C   0  0  0  0  0  0  0  0  0  0  0  0
    1.9908   -5.1657    0.0000 C   0  0  0  0  0  0  0  0  0  0  0  0
    0.7145   -0.4125    0.0000 C   0  0  0  0  0  0  0  0  0  0  0  0
    0.0000   -0.0000    0.0000 C   0  0  0  0  0  0  0  0  0  0  0  0
    0.0000    0.8250    0.0000 C   0  0  0  0  0  0  0  0  0  0  0  0
    0.7145    1.2375    0.0000 C   0  0  0  0  0  0  0  0  0  0  0  0
    0.7145    2.0625    0.0000 O   0  0  0  0  0  0  0  0  0  0  0  0
    1.4289    0.8250    0.0000 C   0  0  0  0  0  0  0  0  0  0  0  0
    1.4289   -0.0000    0.0000 C   0  0  0  0  0  0  0  0  0  0  0  0
  1  2  1  0  0  0  0
  2  3  1  0  0  0  0
  3  4  1  0  0  0  0
  4  5  2  0  0  0  0
  4  6  1  0  0  0  0
  6  7  1  0  0  0  0
  7  8  1  0  0  0  0
  8  9  1  0  0  0  0
  9 10  2  0  0  0  0
 10 11  1  0  0  0  0
 11 12  2  0  0  0  0
 12 13  1  0  0  0  0
  9 13  1  0  0  0  0
  7 14  1  0  0  0  0
 14 15  1  0  0  0  0
 15 16  1  0  0  0  0
 16 17  2  0  0  0  0
 16 18  1  0  0  0  0
 18 19  1  0  0  0  0
 14 19  1  0  0  0  0
 19 20  2  0  0  0  0
 18 21  1  0  0  0  0
 21 22  2  0  0  0  0
 22 23  1  0  0  0  0
 23 24  2  0  0  0  0
 24 25  1  0  0  0  0
 25 26  1  0  0  0  0
 24 27  1  0  0  0  0
 27 28  2  0  0  0  0
 21 28  1  0  0  0  0
  6 29  1  0  0  0  0
 29 30  2  0  0  0  0
 30 31  1  0  0  0  0
 31 32  2  0  0  0  0
 32 33  1  0  0  0  0
 32 34  1  0  0  0  0
 34 35  2  0  0  0  0
 29 35  1  0  0  0  0
M  END
> <ID>
CPD_1782

$$$$
CPD_1787
  Mrv1822 09091914012D          

 35 39  0  0  0  0            999 V2000
    0.7145    1.2375    0.0000 C   0  0  0  0  0  0  0  0  0  0  0  0
    1.4289    0.8250    0.0000 O   0  0  0  0  0  0  0  0  0  0  0  0
    1.4289    0.0000    0.0000 C   0  0  0  0  0  0  0  0  0  0  0  0
    2.1434   -0.4125    0.0000 C   0  0  0  0  0  0  0  0  0  0  0  0
    2.1434   -1.2375    0.0000 C   0  0  0  0  0  0  0  0  0  0  0  0
    1.4289   -1.6500    0.0000 C   0  0  0  0  0  0  0  0  0  0  0  0
    0.7145   -1.2375    0.0000 C   0  0  0  0  0  0  0  0  0  0  0  0
    0.7145   -0.4125    0.0000 C   0  0  0  0  0  0  0  0  0  0  0  0
    1.4289   -2.4750    0.0000 N   0  0  0  0  0  0  0  0  0  0  0  0
    0.7615   -2.9599    0.0000 C   0  0  0  0  0  0  0  0  0  0  0  0
   -0.0231   -2.7050    0.0000 O   0  0  0  0  0  0  0  0  0  0  0  0
    1.0164   -3.7445    0.0000 C   0  0  0  0  0  0  0  0  0  0  0  0
    1.8414   -3.7445    0.0000 C   0  0  0  0  0  0  0  0  0  0  0  0
    2.3264   -4.4120    0.0000 N   0  0  0  0  0  0  0  0  0  0  0  0
    1.9908   -5.1657    0.0000 C   0  0  0  0  0  0  0  0  0  0  0  0
    1.1703   -5.2519    0.0000 C   0  0  0  0  0  0  0  0  0  0  0  0
    0.6183   -4.6388    0.0000 C   0  0  0  0  0  0  0  0  0  0  0  0
   -0.1354   -4.9744    0.0000 C   0  0  0  0  0  0  0  0  0  0  0  0
   -0.0491   -5.7948    0.0000 C   0  0  0  0  0  0  0  0  0  0  0  0
    0.7578   -5.9664    0.0000 O   0  0  0  0  0  0  0  0  0  0  0  0
    3.1468   -4.3257    0.0000 C   0  0  0  0  0  0  0  0  0  0  0  0
    3.6318   -4.9932    0.0000 C   0  0  0  0  0  0  0  0  0  0  0  0
    4.4522   -4.9070    0.0000 C   0  0  0  0  0  0  0  0  0  0  0  0
    4.9372   -5.5744    0.0000 C   0  0  0  0  0  0  0  0  0  0  0  0
    4.6016   -6.3281    0.0000 C   0  0  0  0  0  0  0  0  0  0  0  0
    3.7811   -6.4143    0.0000 C   0  0  0  0  0  0  0  0  0  0  0  0
    3.2962   -5.7469    0.0000 C   0  0  0  0  0  0  0  0  0  0  0  0
    2.4757   -5.8331    0.0000 C   0  0  0  0  0  0  0  0  0  0  0  0
    2.1402   -6.5868    0.0000 N   0  0  0  0  0  0  0  0  0  0  0  0
    2.5527   -7.3012    0.0000 C   0  0  0  0  0  0  0  0  0  0  0  0
    2.0006   -7.9143    0.0000 C   0  0  0  0  0  0  0  0  0  0  0  0
    1.2470   -7.5788    0.0000 C   0  0  0  0  0  0  0  0  0  0  0  0
    1.3332   -6.7583    0.0000 C   0  0  0  0  0  0  0  0  0  0  0  0
    2.0964   -2.9599    0.0000 C   0  0  0  0  0  0  0  0  0  0  0  0
    2.8810   -2.7050    0.0000 O   0  0  0  0  0  0  0  0  0  0  0  0
  1  2  1  0  0  0  0
  2  3  1  0  0  0  0
  3  4  2  0  0  0  0
  4  5  1  0  0  0  0
  5  6  2  0  0  0  0
  6  7  1  0  0  0  0
  7  8  2  0  0  0  0
  3  8  1  0  0  0  0
  6  9  1  0  0  0  0
  9 10  1  0  0  0  0
 10 11  2  0  0  0  0
 10 12  1  0  0  0  0
 12 13  1  0  0  0  0
 13 14  1  0  0  0  0
 14 15  1  0  0  0  0
 15 16  1  0  0  0  0
 16 17  2  0  0  0  0
 17 18  1  0  0  0  0
 18 19  2  0  0  0  0
 19 20  1  0  0  0  0
 16 20  1  0  0  0  0
 14 21  1  0  0  0  0
 21 22  1  0  0  0  0
 22 23  2  0  0  0  0
 23 24  1  0  0  0  0
 24 25  2  0  0  0  0
 25 26  1  0  0  0  0
 26 27  2  0  0  0  0
 22 27  1  0  0  0  0
 27 28  1  0  0  0  0
 28 29  1  0  0  0  0
 29 30  1  0  0  0  0
 30 31  1  0  0  0  0
 31 32  1  0  0  0  0
 32 33  1  0  0  0  0
 29 33  1  0  0  0  0
 13 34  1  0  0  0  0
  9 34  1  0  0  0  0
 34 35  2  0  0  0  0
M  END
> <ID>
CPD_1787

$$$$
CPD_1792
  Mrv1822 09091914012D          

 27 29  0  0  0  0            999 V2000
    4.2906    0.2277    0.0000 H   0  0  0  0  0  0  0  0  0  0  0  0
    4.2906    1.0527    0.0000 O   0  0  0  0  0  0  0  0  0  0  0  0
    3.4656    1.0527    0.0000 C   0  0  0  0  0  0  0  0  0  0  0  0
    2.6406    1.0527    0.0000 C   0  0  0  0  0  0  0  0  0  0  0  0
    3.4656    0.2277    0.0000 C   0  0  0  0  0  0  0  0  0  0  0  0
    4.1331   -0.2572    0.0000 O   0  0  0  0  0  0  0  0  0  0  0  0
    3.8781   -1.0419    0.0000 C   0  0  0  0  0  0  0  0  0  0  0  0
    4.3631   -1.7093    0.0000 C   0  0  0  0  0  0  0  0  0  0  0  0
    3.0531   -1.0419    0.0000 C   0  0  0  0  0  0  0  0  0  0  0  0
    2.7982   -0.2572    0.0000 C   0  0  0  0  0  0  0  0  0  0  0  0
    2.0136   -0.0023    0.0000 O   0  0  0  0  0  0  0  0  0  0  0  0
    3.4656    1.8777    0.0000 C   0  0  0  0  0  0  0  0  0  0  0  0
    2.7512    2.2902    0.0000 C   0  0  0  0  0  0  0  0  0  0  0  0
    2.7512    3.1152    0.0000 C   0  0  0  0  0  0  0  0  0  0  0  0
    3.4656    3.5277    0.0000 C   0  0  0  0  0  0  0  0  0  0  0  0
    4.1801    3.1152    0.0000 C   0  0  0  0  0  0  0  0  0  0  0  0
    4.1801    2.2902    0.0000 C   0  0  0  0  0  0  0  0  0  0  0  0
    4.8946    1.8777    0.0000 C   0  0  0  0  0  0  0  0  0  0  0  0
    5.6091    2.2902    0.0000 C   0  0  0  0  0  0  0  0  0  0  0  0
    6.3235    1.8777    0.0000 C   0  0  0  0  0  0  0  0  0  0  0  0
    6.3235    1.0527    0.0000 C   0  0  0  0  0  0  0  0  0  0  0  0
    7.0380    0.6402    0.0000 C   0  0  0  0  0  0  0  0  0  0  0  0
    7.7525    1.0527    0.0000 O   0  0  0  0  0  0  0  0  0  0  0  0
    7.0380   -0.1848    0.0000 O   0  0  0  0  0  0  0  0  0  0  0  0
    5.6091    0.6402    0.0000 C   0  0  0  0  0  0  0  0  0  0  0  0
    5.6091   -0.1848    0.0000 F   0  0  0  0  0  0  0  0  0  0  0  0
    4.8946    1.0527    0.0000 C   0  0  0  0  0  0  0  0  0  0  0  0
  1  2  1  0  0  0  0
  2  3  1  0  0  0  0
  3  4  1  0  0  0  0
  3  5  1  0  0  0  0
  5  6  1  0  0  0  0
  6  7  1  0  0  0  0
  7  8  1  0  0  0  0
  7  9  2  0  0  0  0
  9 10  1  0  0  0  0
  5 10  1  0  0  0  0
 10 11  2  0  0  0  0
  3 12  1  0  0  0  0
 12 13  2  0  0  0  0
 13 14  1  0  0  0  0
 14 15  2  0  0  0  0
 15 16  1  0  0  0  0
 16 17  2  0  0  0  0
 12 17  1  0  0  0  0
 17 18  1  0  0  0  0
 18 19  2  0  0  0  0
 19 20  1  0  0  0  0
 20 21  2  0  0  0  0
 21 22  1  0  0  0  0
 22 23  1  0  0  0  0
 22 24  2  0  0  0  0
 21 25  1  0  0  0  0
 25 26  1  0  0  0  0
 25 27  2  0  0  0  0
 18 27  1  0  0  0  0
M  END
> <ID>
CPD_1792

$$$$
CPD_1797
  Mrv1822 09091914012D          

 23 25  0  0  0  0            999 V2000
    2.5645    3.3000    0.0000 H   0  0  0  0  0  0  0  0  0  0  0  0
    2.5645    2.4750    0.0000 O   0  0  0  0  0  0  0  0  0  0  0  0
    3.2789    2.0625    0.0000 C   0  0  0  0  0  0  0  0  0  0  0  0
    3.9934    2.4750    0.0000 C   0  0  0  0  0  0  0  0  0  0  0  0
    4.0796    3.2955    0.0000 C   0  0  0  0  0  0  0  0  0  0  0  0
    3.4665    3.8475    0.0000 C   0  0  0  0  0  0  0  0  0  0  0  0
    4.8866    3.4670    0.0000 O   0  0  0  0  0  0  0  0  0  0  0  0
    5.2991    2.7525    0.0000 C   0  0  0  0  0  0  0  0  0  0  0  0
    4.7471    2.1394    0.0000 C   0  0  0  0  0  0  0  0  0  0  0  0
    4.9186    1.3325    0.0000 O   0  0  0  0  0  0  0  0  0  0  0  0
    3.2789    1.2375    0.0000 C   0  0  0  0  0  0  0  0  0  0  0  0
    3.9934    0.8250    0.0000 C   0  0  0  0  0  0  0  0  0  0  0  0
    3.9934    0.0000    0.0000 N   0  0  0  0  0  0  0  0  0  0  0  0
    3.2789   -0.4125    0.0000 C   0  0  0  0  0  0  0  0  0  0  0  0
    2.5645    0.0000    0.0000 C   0  0  0  0  0  0  0  0  0  0  0  0
    2.5645    0.8250    0.0000 C   0  0  0  0  0  0  0  0  0  0  0  0
    1.7798    1.0799    0.0000 O   0  0  0  0  0  0  0  0  0  0  0  0
    1.2949    0.4125    0.0000 C   0  0  0  0  0  0  0  0  0  0  0  0
    1.7798   -0.2549    0.0000 N   0  0  0  0  0  0  0  0  0  0  0  0
    0.4699    0.4125    0.0000 C   0  0  0  0  0  0  0  0  0  0  0  0
   -0.3551    0.4125    0.0000 C   0  0  0  0  0  0  0  0  0  0  0  0
    0.4699    1.2375    0.0000 C   0  0  0  0  0  0  0  0  0  0  0  0
    0.4699   -0.4125    0.0000 C   0  0  0  0  0  0  0  0  0  0  0  0
  1  2  1  0  0  0  0
  2  3  1  0  0  0  0
  3  4  1  0  0  0  0
  4  5  2  0  0  0  0
  5  6  1  0  0  0  0
  5  7  1  0  0  0  0
  7  8  1  0  0  0  0
  8  9  1  0  0  0  0
  4  9  1  0  0  0  0
  9 10  2  0  0  0  0
  3 11  1  0  0  0  0
 11 12  2  0  0  0  0
 12 13  1  0  0  0  0
 13 14  2  0  0  0  0
 14 15  1  0  0  0  0
 15 16  2  0  0  0  0
 11 16  1  0  0  0  0
 16 17  1  0  0  0  0
 17 18  1  0  0  0  0
 18 19  2  0  0  0  0
 15 19  1  0  0  0  0
 18 20  1  0  0  0  0
 20 21  1  0  0  0  0
 20 22  1  0  0  0  0
 20 23  1  0  0  0  0
M  END
> <ID>
CPD_1797

$$$$
CPD_1802
  Mrv1822 09091914012D          

 25 26  0  0  0  0            999 V2000
    0.3952   -0.3562    0.0000 H   0  0  0  0  0  0  0  0  0  0  0  0
    0.2868   -1.1741    0.0000 O   0  0  0  0  0  0  0  0  0  0  0  0
    1.0938   -1.0026    0.0000 C   0  0  0  0  0  0  0  0  0  0  0  0
    1.3487   -0.2179    0.0000 C   0  0  0  0  0  0  0  0  0  0  0  0
    0.7967    0.3952    0.0000 C   0  0  0  0  0  0  0  0  0  0  0  0
   -0.0103    0.2236    0.0000 N   0  0  0  0  0  0  0  0  0  0  0  0
    1.0516    1.1798    0.0000 C   0  0  0  0  0  0  0  0  0  0  0  0
    1.8586    1.3513    0.0000 C   0  0  0  0  0  0  0  0  0  0  0  0
    2.4106    0.7382    0.0000 C   0  0  0  0  0  0  0  0  0  0  0  0
    2.1557   -0.0464    0.0000 C   0  0  0  0  0  0  0  0  0  0  0  0
    1.6458   -1.6157    0.0000 C   0  0  0  0  0  0  0  0  0  0  0  0
    2.1978   -1.0026    0.0000 C   0  0  0  0  0  0  0  0  0  0  0  0
    0.9784   -2.1006    0.0000 N   0  0  0  0  0  0  0  0  0  0  0  0
    0.1937   -1.8456    0.0000 C   0  0  0  0  0  0  0  0  0  0  0  0
    0.0222   -1.0387    0.0000 O   0  0  0  0  0  0  0  0  0  0  0  0
   -0.4193   -2.3977    0.0000 O   0  0  0  0  0  0  0  0  0  0  0  0
   -1.2040   -2.1427    0.0000 C   0  0  0  0  0  0  0  0  0  0  0  0
   -1.9886   -1.8878    0.0000 C   0  0  0  0  0  0  0  0  0  0  0  0
   -0.9490   -1.3581    0.0000 C   0  0  0  0  0  0  0  0  0  0  0  0
   -1.4589   -2.9274    0.0000 C   0  0  0  0  0  0  0  0  0  0  0  0
    1.2333   -2.8852    0.0000 C   0  0  0  0  0  0  0  0  0  0  0  0
    0.7484   -3.5526    0.0000 O   0  0  0  0  0  0  0  0  0  0  0  0
    2.0583   -2.8852    0.0000 C   0  0  0  0  0  0  0  0  0  0  0  0
    2.3132   -2.1006    0.0000 C   0  0  0  0  0  0  0  0  0  0  0  0
    3.0979   -1.8456    0.0000 O   0  0  0  0  0  0  0  0  0  0  0  0
  1  2  1  0  0  0  0
  2  3  1  0  0  0  0
  3  4  1  0  0  0  0
  4  5  2  0  0  0  0
  5  6  1  0  0  0  0
  5  7  1  0  0  0  0
  7  8  2  0  0  0  0
  8  9  1  0  0  0  0
  9 10  2  0  0  0  0
  4 10  1  0  0  0  0
  3 11  1  0  0  0  0
 11 12  1  0  0  0  0
 11 13  1  0  0  0  0
 13 14  1  0  0  0  0
 14 15  2  0  0  0  0
 14 16  1  0  0  0  0
 16 17  1  0  0  0  0
 17 18  1  0  0  0  0
 17 19  1  0  0  0  0
 17 20  1  0  0  0  0
 13 21  1  0  0  0  0
 21 22  2  0  0  0  0
 21 23  1  0  0  0  0
 23 24  1  0  0  0  0
 11 24  1  0  0  0  0
 24 25  2  0  0  0  0
M  END
> <ID>
CPD_1802

$$$$
CPD_1807
  Mrv1822 09091914012D          

 23 24  0  0  0  0            999 V2000
    2.9616   -0.6029    0.0000 H   0  0  0  0  0  0  0  0  0  0  0  0
    2.2136   -0.2549    0.0000 O   0  0  0  0  0  0  0  0  0  0  0  0
    1.4991   -0.6674    0.0000 C   0  0  0  0  0  0  0  0  0  0  0  0
    1.4991   -1.4924    0.0000 C   0  0  0  0  0  0  0  0  0  0  0  0
    2.1665   -1.9774    0.0000 C   0  0  0  0  0  0  0  0  0  0  0  0
    1.9116   -2.7620    0.0000 C   0  0  0  0  0  0  0  0  0  0  0  0
    1.0866   -2.7620    0.0000 C   0  0  0  0  0  0  0  0  0  0  0  0
    0.8317   -1.9774    0.0000 S   0  0  0  0  0  0  0  0  0  0  0  0
    0.7846   -0.2549    0.0000 C   0  0  0  0  0  0  0  0  0  0  0  0
    0.4491   -1.0086    0.0000 C   0  0  0  0  0  0  0  0  0  0  0  0
   -0.0000   -0.0000    0.0000 N   0  0  0  0  0  0  0  0  0  0  0  0
   -0.6674   -0.4849    0.0000 C   0  0  0  0  0  0  0  0  0  0  0  0
   -0.5812   -1.3054    0.0000 O   0  0  0  0  0  0  0  0  0  0  0  0
   -1.4211   -0.1494    0.0000 O   0  0  0  0  0  0  0  0  0  0  0  0
   -2.0886   -0.6343    0.0000 C   0  0  0  0  0  0  0  0  0  0  0  0
   -2.7560   -1.1192    0.0000 C   0  0  0  0  0  0  0  0  0  0  0  0
   -2.5735    0.0332    0.0000 C   0  0  0  0  0  0  0  0  0  0  0  0
   -1.6036   -1.3017    0.0000 C   0  0  0  0  0  0  0  0  0  0  0  0
   -0.0000    0.8250    0.0000 C   0  0  0  0  0  0  0  0  0  0  0  0
   -0.6674    1.3099    0.0000 O   0  0  0  0  0  0  0  0  0  0  0  0
    0.7846    1.0799    0.0000 C   0  0  0  0  0  0  0  0  0  0  0  0
    1.2695    0.4125    0.0000 C   0  0  0  0  0  0  0  0  0  0  0  0
    2.0945    0.4125    0.0000 O   0  0  0  0  0  0  0  0  0  0  0  0
  1  2  1  0  0  0  0
  2  3  1  0  0  0  0
  3  4  1  0  0  0  0
  4  5  2  0  0  0  0
  5  6  1  0  0  0  0
  6  7  2  0  0  0  0
  7  8  1  0  0  0  0
  4  8  1  0  0  0  0
  3  9  1  0  0  0  0
  9 10  1  0  0  0  0
  9 11  1  0  0  0  0
 11 12  1  0  0  0  0
 12 13  2  0  0  0  0
 12 14  1  0  0  0  0
 14 15  1  0  0  0  0
 15 16  1  0  0  0  0
 15 17  1  0  0  0  0
 15 18  1  0  0  0  0
 11 19  1  0  0  0  0
 19 20  2  0  0  0  0
 19 21  1  0  0  0  0
 21 22  1  0  0  0  0
  9 22  1  0  0  0  0
 22 23  2  0  0  0  0
M  END
> <ID>
CPD_1807

$$$$
CPD_1812
  Mrv1822 09091914012D          

 31 33  0  0  1  0            999 V2000
    4.4747   -3.3014    0.0000 H   0  0  0  0  0  0  0  0  0  0  0  0
    4.1925   -2.5262    0.0000 O   0  0  0  0  0  0  0  0  0  0  0  0
    3.3801   -2.3829    0.0000 C   0  0  0  0  0  0  0  0  0  0  0  0
    2.5676   -2.5262    0.0000 C   0  0  0  0  0  0  0  0  0  0  0  0
    2.0373   -1.8942    0.0000 C   0  0  0  0  0  0  0  0  0  0  0  0
    2.3195   -1.1190    0.0000 C   0  0  0  0  0  0  0  0  0  0  0  0
    3.1319   -0.9757    0.0000 C   0  0  0  0  0  0  0  0  0  0  0  0
    3.6622   -1.6077    0.0000 C   0  0  0  0  0  0  0  0  0  0  0  0
    1.7892   -0.4870    0.0000 N   0  0  0  0  0  0  0  0  0  0  0  0
    2.0713    0.2883    0.0000 C   0  0  0  0  0  0  0  0  0  0  0  0
    1.5410    0.9203    0.0000 C   0  0  0  0  0  0  0  0  0  0  0  0
    1.8232    1.6955    0.0000 C   0  0  0  0  0  0  0  0  0  0  0  0
    2.6357    1.8388    0.0000 C   0  0  0  0  0  0  0  0  0  0  0  0
    2.9178    2.6140    0.0000 O   0  0  0  0  0  0  0  0  0  0  0  0
    3.1660    1.2068    0.0000 C   0  0  0  0  0  0  0  0  0  0  0  0
    2.8838    0.4315    0.0000 C   0  0  0  0  0  0  0  0  0  0  0  0
    3.3801   -3.2079    0.0000 C   0  0  0  0  0  0  0  0  0  0  0  0
    4.0475   -3.6928    0.0000 C   0  0  0  0  0  0  0  0  0  0  0  0
    4.8321   -3.4379    0.0000 O   0  0  0  0  0  0  0  0  0  0  0  0
    3.7926   -4.4775    0.0000 C   0  0  2  0  0  0  0  0  0  0  0  0
    4.2775   -5.1449    0.0000 C   0  0  0  0  0  0  0  0  0  0  0  0
    2.9676   -4.4775    0.0000 N   0  0  0  0  0  0  0  0  0  0  0  0
    2.4827   -5.1449    0.0000 C   0  0  0  0  0  0  0  0  0  0  0  0
    2.8182   -5.8986    0.0000 O   0  0  0  0  0  0  0  0  0  0  0  0
    1.6622   -5.0587    0.0000 O   0  0  0  0  0  0  0  0  0  0  0  0
    1.1772   -5.7261    0.0000 C   0  0  0  0  0  0  0  0  0  0  0  0
    0.6923   -6.3935    0.0000 C   0  0  0  0  0  0  0  0  0  0  0  0
    0.5098   -5.2412    0.0000 C   0  0  0  0  0  0  0  0  0  0  0  0
    1.8447   -6.2110    0.0000 C   0  0  0  0  0  0  0  0  0  0  0  0
    2.7126   -3.6928    0.0000 C   0  0  0  0  0  0  0  0  0  0  0  0
    1.9280   -3.4379    0.0000 O   0  0  0  0  0  0  0  0  0  0  0  0
  1  2  1  0  0  0  0
  2  3  1  0  0  0  0
  3  4  1  0  0  0  0
  4  5  2  0  0  0  0
  5  6  1  0  0  0  0
  6  7  1  0  0  0  0
  7  8  2  0  0  0  0
  3  8  1  0  0  0  0
  6  9  2  0  0  0  0
  9 10  1  0  0  0  0
 10 11  2  0  0  0  0
 11 12  1  0  0  0  0
 12 13  2  0  0  0  0
 13 14  1  0  0  0  0
 13 15  1  0  0  0  0
 15 16  2  0  0  0  0
 10 16  1  0  0  0  0
  3 17  1  0  0  0  0
 17 18  1  0  0  0  0
 18 19  2  0  0  0  0
 20 18  1  0  0  0  0
 20 21  1  6  0  0  0
 20 22  1  0  0  0  0
 22 23  1  0  0  0  0
 23 24  2  0  0  0  0
 23 25  1  0  0  0  0
 25 26  1  0  0  0  0
 26 27  1  0  0  0  0
 26 28  1  0  0  0  0
 26 29  1  0  0  0  0
 22 30  1  0  0  0  0
 17 30  1  0  0  0  0
 30 31  2  0  0  0  0
M  END
> <ID>
CPD_1812

$$$$
CPD_1817
  Mrv1822 09091914012D          

 23 24  0  0  0  0            999 V2000
    1.4289   -0.0000    0.0000 H   0  0  0  0  0  0  0  0  0  0  0  0
    1.4289   -0.8250    0.0000 O   0  0  0  0  0  0  0  0  0  0  0  0
    2.1434   -1.2375    0.0000 C   0  0  0  0  0  0  0  0  0  0  0  0
    2.1434   -2.0625    0.0000 C   0  0  0  0  0  0  0  0  0  0  0  0
    1.4289   -2.4750    0.0000 N   0  0  0  0  0  0  0  0  0  0  0  0
    1.4289   -3.3000    0.0000 C   0  0  0  0  0  0  0  0  0  0  0  0
    0.7145   -3.7125    0.0000 C   0  0  0  0  0  0  0  0  0  0  0  0
    2.1434   -3.7125    0.0000 O   0  0  0  0  0  0  0  0  0  0  0  0
    0.7145   -2.0625    0.0000 C   0  0  0  0  0  0  0  0  0  0  0  0
    0.7145   -1.2375    0.0000 C   0  0  0  0  0  0  0  0  0  0  0  0
    0.0000   -2.4750    0.0000 O   0  0  0  0  0  0  0  0  0  0  0  0
    2.8579   -2.4750    0.0000 C   0  0  0  0  0  0  0  0  0  0  0  0
    3.5724   -2.0625    0.0000 C   0  0  0  0  0  0  0  0  0  0  0  0
    2.8579   -3.3000    0.0000 O   0  0  0  0  0  0  0  0  0  0  0  0
    2.8579   -0.8250    0.0000 C   0  0  0  0  0  0  0  0  0  0  0  0
    2.8579    0.0000    0.0000 C   0  0  0  0  0  0  0  0  0  0  0  0
    3.5724    0.4125    0.0000 C   0  0  0  0  0  0  0  0  0  0  0  0
    4.2868    0.0000    0.0000 C   0  0  0  0  0  0  0  0  0  0  0  0
    4.8999    0.5520    0.0000 O   0  0  0  0  0  0  0  0  0  0  0  0
    4.5644    1.3057    0.0000 C   0  0  0  0  0  0  0  0  0  0  0  0
    3.7439    1.2195    0.0000 C   0  0  0  0  0  0  0  0  0  0  0  0
    4.2868   -0.8250    0.0000 C   0  0  0  0  0  0  0  0  0  0  0  0
    3.5724   -1.2375    0.0000 C   0  0  0  0  0  0  0  0  0  0  0  0
  1  2  1  0  0  0  0
  2  3  1  0  0  0  0
  3  4  1  0  0  0  0
  4  5  1  0  0  0  0
  5  6  1  0  0  0  0
  6  7  1  0  0  0  0
  6  8  2  0  0  0  0
  5  9  1  0  0  0  0
  9 10  1  0  0  0  0
  9 11  2  0  0  0  0
  4 12  1  0  0  0  0
 12 13  1  0  0  0  0
 12 14  2  0  0  0  0
  3 15  1  0  0  0  0
 15 16  2  0  0  0  0
 16 17  1  0  0  0  0
 17 18  2  0  0  0  0
 18 19  1  0  0  0  0
 19 20  1  0  0  0  0
 20 21  2  0  0  0  0
 17 21  1  0  0  0  0
 18 22  1  0  0  0  0
 22 23  2  0  0  0  0
 15 23  1  0  0  0  0
M  END
> <ID>
CPD_1817

$$$$
CPD_1822
  Mrv1822 09091914012D          

 27 28  0  0  0  0            999 V2000
   -0.5230   -2.9980    0.0000 H   0  0  0  0  0  0  0  0  0  0  0  0
   -0.1105   -3.7125    0.0000 O   0  0  0  0  0  0  0  0  0  0  0  0
    0.7145   -3.7125    0.0000 C   0  0  0  0  0  0  0  0  0  0  0  0
    1.5395   -3.7125    0.0000 C   0  0  0  0  0  0  0  0  0  0  0  0
    0.7145   -4.5375    0.0000 C   0  0  0  0  0  0  0  0  0  0  0  0
    1.4289   -4.9500    0.0000 N   0  0  0  0  0  0  0  0  0  0  0  0
    1.4289   -5.7750    0.0000 C   0  0  0  0  0  0  0  0  0  0  0  0
    2.1434   -6.1875    0.0000 C   0  0  0  0  0  0  0  0  0  0  0  0
    0.7145   -6.1875    0.0000 O   0  0  0  0  0  0  0  0  0  0  0  0
    2.1434   -4.5375    0.0000 C   0  0  0  0  0  0  0  0  0  0  0  0
    2.8579   -4.9500    0.0000 C   0  0  0  0  0  0  0  0  0  0  0  0
    2.1434   -3.7125    0.0000 O   0  0  0  0  0  0  0  0  0  0  0  0
    0.0000   -4.9500    0.0000 C   0  0  0  0  0  0  0  0  0  0  0  0
    0.0000   -5.7750    0.0000 C   0  0  0  0  0  0  0  0  0  0  0  0
   -0.7145   -4.5375    0.0000 O   0  0  0  0  0  0  0  0  0  0  0  0
    0.7145   -2.8875    0.0000 C   0  0  0  0  0  0  0  0  0  0  0  0
    0.0000   -2.4750    0.0000 C   0  0  0  0  0  0  0  0  0  0  0  0
    0.0000   -1.6500    0.0000 C   0  0  0  0  0  0  0  0  0  0  0  0
    0.7145   -1.2375    0.0000 C   0  0  0  0  0  0  0  0  0  0  0  0
    1.4289   -1.6500    0.0000 C   0  0  0  0  0  0  0  0  0  0  0  0
    1.4289   -2.4750    0.0000 C   0  0  0  0  0  0  0  0  0  0  0  0
    0.7145   -0.4125    0.0000 C   0  0  0  0  0  0  0  0  0  0  0  0
    0.0000    0.0000    0.0000 C   0  0  0  0  0  0  0  0  0  0  0  0
    0.0000    0.8250    0.0000 C   0  0  0  0  0  0  0  0  0  0  0  0
    0.7145    1.2375    0.0000 C   0  0  0  0  0  0  0  0  0  0  0  0
    1.4289    0.8250    0.0000 C   0  0  0  0  0  0  0  0  0  0  0  0
    1.4289   -0.0000    0.0000 C   0  0  0  0  0  0  0  0  0  0  0  0
  1  2  1  0  0  0  0
  2  3  1  0  0  0  0
  3  4  1  0  0  0  0
  3  5  1  0  0  0  0
  5  6  1  0  0  0  0
  6  7  1  0  0  0  0
  7  8  1  0  0  0  0
  7  9  2  0  0  0  0
  6 10  1  0  0  0  0
 10 11  1  0  0  0  0
 10 12  2  0  0  0  0
  5 13  1  0  0  0  0
 13 14  1  0  0  0  0
 13 15  2  0  0  0  0
  3 16  1  0  0  0  0
 16 17  2  0  0  0  0
 17 18  1  0  0  0  0
 18 19  2  0  0  0  0
 19 20  1  0  0  0  0
 20 21  2  0  0  0  0
 16 21  1  0  0  0  0
 19 22  1  0  0  0  0
 22 23  1  0  0  0  0
 23 24  1  0  0  0  0
 24 25  1  0  0  0  0
 25 26  1  0  0  0  0
 26 27  1  0  0  0  0
 22 27  1  0  0  0  0
M  END
> <ID>
CPD_1822

$$$$
CPD_1827
  Mrv1822 09091914012D          

 32 34  0  0  0  0            999 V2000
    2.8579    0.8250    0.0000 H   0  0  0  0  0  0  0  0  0  0  0  0
    2.8579    0.0000    0.0000 O   0  0  0  0  0  0  0  0  0  0  0  0
    3.5724   -0.4125    0.0000 C   0  0  0  0  0  0  0  0  0  0  0  0
    3.5724   -1.2375    0.0000 C   0  0  0  0  0  0  0  0  0  0  0  0
    2.8579   -1.6500    0.0000 C   0  0  0  0  0  0  0  0  0  0  0  0
    2.1434   -1.2375    0.0000 O   0  0  0  0  0  0  0  0  0  0  0  0
    2.8579   -2.4750    0.0000 C   0  0  0  0  0  0  0  0  0  0  0  0
    3.5724   -2.8875    0.0000 C   0  0  0  0  0  0  0  0  0  0  0  0
    3.5724   -3.7125    0.0000 C   0  0  0  0  0  0  0  0  0  0  0  0
    2.8579   -4.1250    0.0000 C   0  0  0  0  0  0  0  0  0  0  0  0
    2.1434   -3.7125    0.0000 C   0  0  0  0  0  0  0  0  0  0  0  0
    1.4289   -4.1250    0.0000 N   0  0  0  0  0  0  0  0  0  0  0  0
    1.4289   -4.9500    0.0000 C   0  0  0  0  0  0  0  0  0  0  0  0
    2.1434   -5.3625    0.0000 O   0  0  0  0  0  0  0  0  0  0  0  0
    0.7145   -5.3625    0.0000 C   0  0  0  0  0  0  0  0  0  0  0  0
    0.7145   -6.1875    0.0000 C   0  0  0  0  0  0  0  0  0  0  0  0
    1.4289   -6.6000    0.0000 F   0  0  0  0  0  0  0  0  0  0  0  0
    0.0000   -6.6000    0.0000 C   0  0  0  0  0  0  0  0  0  0  0  0
   -0.7145   -6.1875    0.0000 C   0  0  0  0  0  0  0  0  0  0  0  0
   -0.7145   -5.3625    0.0000 C   0  0  0  0  0  0  0  0  0  0  0  0
    0.0000   -4.9500    0.0000 C   0  0  0  0  0  0  0  0  0  0  0  0
   -1.4289   -6.6000    0.0000 C   0  0  0  0  0  0  0  0  0  0  0  0
   -2.1434   -7.0125    0.0000 N   0  0  0  0  0  0  0  0  0  0  0  0
    2.1434   -2.8875    0.0000 C   0  0  0  0  0  0  0  0  0  0  0  0
    4.2868   -0.0000    0.0000 C   0  0  0  0  0  0  0  0  0  0  0  0
    4.2868    0.8250    0.0000 C   0  0  0  0  0  0  0  0  0  0  0  0
    3.5724    1.2375    0.0000 F   0  0  0  0  0  0  0  0  0  0  0  0
    5.0013    1.2375    0.0000 C   0  0  0  0  0  0  0  0  0  0  0  0
    5.7158    0.8250    0.0000 C   0  0  0  0  0  0  0  0  0  0  0  0
    5.7158   -0.0000    0.0000 C   0  0  0  0  0  0  0  0  0  0  0  0
    5.0013   -0.4125    0.0000 C   0  0  0  0  0  0  0  0  0  0  0  0
    5.0013   -1.2375    0.0000 C   0  0  0  0  0  0  0  0  0  0  0  0
  1  2  1  0  0  0  0
  2  3  1  0  0  0  0
  3  4  1  0  0  0  0
  4  5  1  0  0  0  0
  5  6  2  0  0  0  0
  5  7  1  0  0  0  0
  7  8  2  0  0  0  0
  8  9  1  0  0  0  0
  9 10  2  0  0  0  0
 10 11  1  0  0  0  0
 11 12  1  0  0  0  0
 12 13  1  0  0  0  0
 13 14  2  0  0  0  0
 13 15  1  0  0  0  0
 15 16  2  0  0  0  0
 16 17  1  0  0  0  0
 16 18  1  0  0  0  0
 18 19  2  0  0  0  0
 19 20  1  0  0  0  0
 20 21  2  0  0  0  0
 15 21  1  0  0  0  0
 19 22  1  0  0  0  0
 22 23  3  0  0  0  0
 11 24  2  0  0  0  0
  7 24  1  0  0  0  0
  3 25  1  0  0  0  0
 25 26  2  0  0  0  0
 26 27  1  0  0  0  0
 26 28  1  0  0  0  0
 28 29  2  0  0  0  0
 29 30  1  0  0  0  0
 30 31  2  0  0  0  0
 25 31  1  0  0  0  0
 31 32  1  0  0  0  0
M  END
> <ID>
CPD_1827

$$$$
CPD_1832
  Mrv1822 09091914012D          

 38 41  0  0  0  0            999 V2000
   -2.8579   -1.6500    0.0000 H   0  0  0  0  0  0  0  0  0  0  0  0
   -2.8579   -2.4750    0.0000 O   0  0  0  0  0  0  0  0  0  0  0  0
   -2.1434   -2.8875    0.0000 C   0  0  0  0  0  0  0  0  0  0  0  0
   -2.1434   -3.7125    0.0000 C   0  0  0  0  0  0  0  0  0  0  0  0
   -2.8579   -4.1250    0.0000 C   0  0  0  0  0  0  0  0  0  0  0  0
   -3.5724   -3.7125    0.0000 O   0  0  0  0  0  0  0  0  0  0  0  0
   -2.8579   -4.9500    0.0000 C   0  0  0  0  0  0  0  0  0  0  0  0
   -2.1434   -5.3625    0.0000 C   0  0  0  0  0  0  0  0  0  0  0  0
   -2.1434   -6.1875    0.0000 C   0  0  0  0  0  0  0  0  0  0  0  0
   -2.8579   -6.6000    0.0000 C   0  0  0  0  0  0  0  0  0  0  0  0
   -3.5724   -6.1875    0.0000 C   0  0  0  0  0  0  0  0  0  0  0  0
   -4.2868   -6.6000    0.0000 N   0  0  0  0  0  0  0  0  0  0  0  0
   -4.2868   -7.4250    0.0000 C   0  0  0  0  0  0  0  0  0  0  0  0
   -3.5724   -7.8375    0.0000 O   0  0  0  0  0  0  0  0  0  0  0  0
   -5.0013   -7.8375    0.0000 C   0  0  0  0  0  0  0  0  0  0  0  0
   -5.0013   -8.6625    0.0000 C   0  0  0  0  0  0  0  0  0  0  0  0
   -4.2868   -9.0750    0.0000 F   0  0  0  0  0  0  0  0  0  0  0  0
   -5.7158   -9.0750    0.0000 C   0  0  0  0  0  0  0  0  0  0  0  0
   -6.4302   -8.6625    0.0000 C   0  0  0  0  0  0  0  0  0  0  0  0
   -6.4302   -7.8375    0.0000 C   0  0  0  0  0  0  0  0  0  0  0  0
   -5.7158   -7.4250    0.0000 C   0  0  0  0  0  0  0  0  0  0  0  0
   -7.1447   -9.0750    0.0000 C   0  0  0  0  0  0  0  0  0  0  0  0
   -7.8592   -9.4875    0.0000 N   0  0  0  0  0  0  0  0  0  0  0  0
   -3.5724   -5.3625    0.0000 C   0  0  0  0  0  0  0  0  0  0  0  0
   -1.4289   -2.4750    0.0000 C   0  0  0  0  0  0  0  0  0  0  0  0
   -1.4289   -1.6500    0.0000 C   0  0  0  0  0  0  0  0  0  0  0  0
   -0.7145   -1.2375    0.0000 C   0  0  0  0  0  0  0  0  0  0  0  0
    0.0000   -1.6500    0.0000 C   0  0  0  0  0  0  0  0  0  0  0  0
    0.7145   -1.2375    0.0000 O   0  0  0  0  0  0  0  0  0  0  0  0
    0.7145   -0.4125    0.0000 C   0  0  0  0  0  0  0  0  0  0  0  0
    0.0000   -0.0000    0.0000 C   0  0  0  0  0  0  0  0  0  0  0  0
    0.0000    0.8250    0.0000 C   0  0  0  0  0  0  0  0  0  0  0  0
    0.7145    1.2375    0.0000 C   0  0  0  0  0  0  0  0  0  0  0  0
    0.7145    2.0625    0.0000 Cl  0  0  0  0  0  0  0  0  0  0  0  0
    1.4289    0.8250    0.0000 C   0  0  0  0  0  0  0  0  0  0  0  0
    1.4289   -0.0000    0.0000 C   0  0  0  0  0  0  0  0  0  0  0  0
    0.0000   -2.4750    0.0000 C   0  0  0  0  0  0  0  0  0  0  0  0
   -0.7145   -2.8875    0.0000 C   0  0  0  0  0  0  0  0  0  0  0  0
  1  2  1  0  0  0  0
  2  3  1  0  0  0  0
  3  4  1  0  0  0  0
  4  5  1  0  0  0  0
  5  6  2  0  0  0  0
  5  7  1  0  0  0  0
  7  8  2  0  0  0  0
  8  9  1  0  0  0  0
  9 10  2  0  0  0  0
 10 11  1  0  0  0  0
 11 12  1  0  0  0  0
 12 13  1  0  0  0  0
 13 14  2  0  0  0  0
 13 15  1  0  0  0  0
 15 16  2  0  0  0  0
 16 17  1  0  0  0  0
 16 18  1  0  0  0  0
 18 19  2  0  0  0  0
 19 20  1  0  0  0  0
 20 21  2  0  0  0  0
 15 21  1  0  0  0  0
 19 22  1  0  0  0  0
 22 23  3  0  0  0  0
 11 24  2  0  0  0  0
  7 24  1  0  0  0  0
  3 25  1  0  0  0  0
 25 26  2  0  0  0  0
 26 27  1  0  0  0  0
 27 28  2  0  0  0  0
 28 29  1  0  0  0  0
 29 30  1  0  0  0  0
 30 31  2  0  0  0  0
 31 32  1  0  0  0  0
 32 33  2  0  0  0  0
 33 34  1  0  0  0  0
 33 35  1  0  0  0  0
 35 36  2  0  0  0  0
 30 36  1  0  0  0  0
 28 37  1  0  0  0  0
 37 38  2  0  0  0  0
 25 38  1  0  0  0  0
M  END
> <ID>
CPD_1832

$$$$
CPD_1837
  Mrv1822 09091914012D          

 34 37  0  0  0  0            999 V2000
   -1.4534    0.7310    0.0000 H   0  0  0  0  0  0  0  0  0  0  0  0
   -1.8659    0.0165    0.0000 O   0  0  0  0  0  0  0  0  0  0  0  0
   -1.4534   -0.6979    0.0000 C   0  0  0  0  0  0  0  0  0  0  0  0
   -1.8659   -1.4124    0.0000 C   0  0  0  0  0  0  0  0  0  0  0  0
   -2.6909   -1.4124    0.0000 C   0  0  0  0  0  0  0  0  0  0  0  0
   -3.1034   -0.6979    0.0000 O   0  0  0  0  0  0  0  0  0  0  0  0
   -3.1034   -2.1269    0.0000 C   0  0  0  0  0  0  0  0  0  0  0  0
   -2.6909   -2.8414    0.0000 C   0  0  0  0  0  0  0  0  0  0  0  0
   -3.1034   -3.5558    0.0000 C   0  0  0  0  0  0  0  0  0  0  0  0
   -3.9284   -3.5558    0.0000 C   0  0  0  0  0  0  0  0  0  0  0  0
   -4.3409   -2.8414    0.0000 C   0  0  0  0  0  0  0  0  0  0  0  0
   -5.1659   -2.8414    0.0000 N   0  0  0  0  0  0  0  0  0  0  0  0
   -5.5784   -3.5558    0.0000 C   0  0  0  0  0  0  0  0  0  0  0  0
   -5.1659   -4.2703    0.0000 O   0  0  0  0  0  0  0  0  0  0  0  0
   -6.4034   -3.5558    0.0000 C   0  0  0  0  0  0  0  0  0  0  0  0
   -6.8159   -4.2703    0.0000 C   0  0  0  0  0  0  0  0  0  0  0  0
   -6.4034   -4.9848    0.0000 F   0  0  0  0  0  0  0  0  0  0  0  0
   -7.6409   -4.2703    0.0000 C   0  0  0  0  0  0  0  0  0  0  0  0
   -8.0534   -3.5558    0.0000 C   0  0  0  0  0  0  0  0  0  0  0  0
   -7.6409   -2.8414    0.0000 C   0  0  0  0  0  0  0  0  0  0  0  0
   -6.8159   -2.8414    0.0000 C   0  0  0  0  0  0  0  0  0  0  0  0
   -8.8784   -3.5558    0.0000 C   0  0  0  0  0  0  0  0  0  0  0  0
   -9.7034   -3.5558    0.0000 N   0  0  0  0  0  0  0  0  0  0  0  0
   -3.9284   -2.1269    0.0000 C   0  0  0  0  0  0  0  0  0  0  0  0
   -0.6284   -0.6979    0.0000 C   0  0  0  0  0  0  0  0  0  0  0  0
   -0.1435   -1.3654    0.0000 C   0  0  0  0  0  0  0  0  0  0  0  0
    0.6411   -1.1104    0.0000 C   0  0  0  0  0  0  0  0  0  0  0  0
    0.6411   -0.2854    0.0000 C   0  0  0  0  0  0  0  0  0  0  0  0
   -0.1435   -0.0305    0.0000 S   0  0  0  0  0  0  0  0  0  0  0  0
    1.3556    0.1271    0.0000 C   0  0  0  0  0  0  0  0  0  0  0  0
    2.0701   -0.2854    0.0000 C   0  0  0  0  0  0  0  0  0  0  0  0
    2.0701   -1.1104    0.0000 C   0  0  0  0  0  0  0  0  0  0  0  0
    1.3556   -1.5229    0.0000 C   0  0  0  0  0  0  0  0  0  0  0  0
    1.3556   -2.3479    0.0000 Br  0  0  0  0  0  0  0  0  0  0  0  0
  1  2  1  0  0  0  0
  2  3  1  0  0  0  0
  3  4  1  0  0  0  0
  4  5  1  0  0  0  0
  5  6  2  0  0  0  0
  5  7  1  0  0  0  0
  7  8  2  0  0  0  0
  8  9  1  0  0  0  0
  9 10  2  0  0  0  0
 10 11  1  0  0  0  0
 11 12  1  0  0  0  0
 12 13  1  0  0  0  0
 13 14  2  0  0  0  0
 13 15  1  0  0  0  0
 15 16  2  0  0  0  0
 16 17  1  0  0  0  0
 16 18  1  0  0  0  0
 18 19  2  0  0  0  0
 19 20  1  0  0  0  0
 20 21  2  0  0  0  0
 15 21  1  0  0  0  0
 19 22  1  0  0  0  0
 22 23  3  0  0  0  0
 11 24  2  0  0  0  0
  7 24  1  0  0  0  0
  3 25  1  0  0  0  0
 25 26  2  0  0  0  0
 26 27  1  0  0  0  0
 27 28  2  0  0  0  0
 28 29  1  0  0  0  0
 25 29  1  0  0  0  0
 28 30  1  0  0  0  0
 30 31  2  0  0  0  0
 31 32  1  0  0  0  0
 32 33  2  0  0  0  0
 27 33  1  0  0  0  0
 33 34  1  0  0  0  0
M  END
> <ID>
CPD_1837

$$$$
CPD_1842
  Mrv1822 09091914012D          

 36 39  0  0  0  0            999 V2000
   -2.5703   -3.0448    0.0000 H   0  0  0  0  0  0  0  0  0  0  0  0
   -2.0572   -2.3988    0.0000 O   0  0  0  0  0  0  0  0  0  0  0  0
   -1.5269   -3.0308    0.0000 C   0  0  0  0  0  0  0  0  0  0  0  0
   -0.8125   -3.4433    0.0000 C   0  0  0  0  0  0  0  0  0  0  0  0
   -0.8125   -4.2683    0.0000 C   0  0  0  0  0  0  0  0  0  0  0  0
   -1.5269   -4.6808    0.0000 C   0  0  0  0  0  0  0  0  0  0  0  0
   -2.2414   -4.2683    0.0000 C   0  0  0  0  0  0  0  0  0  0  0  0
   -2.9559   -4.6808    0.0000 N   0  0  0  0  0  0  0  0  0  0  0  0
   -2.9559   -5.5058    0.0000 C   0  0  0  0  0  0  0  0  0  0  0  0
   -2.2414   -5.9183    0.0000 C   0  0  0  0  0  0  0  0  0  0  0  0
   -2.2414   -6.7433    0.0000 C   0  0  0  0  0  0  0  0  0  0  0  0
   -1.5269   -7.1558    0.0000 Cl  0  0  0  0  0  0  0  0  0  0  0  0
   -2.9559   -7.1558    0.0000 C   0  0  0  0  0  0  0  0  0  0  0  0
   -3.6704   -6.7433    0.0000 C   0  0  0  0  0  0  0  0  0  0  0  0
   -3.6704   -5.9183    0.0000 C   0  0  0  0  0  0  0  0  0  0  0  0
   -4.3848   -5.5058    0.0000 C   0  0  0  0  0  0  0  0  0  0  0  0
   -2.2414   -3.4433    0.0000 C   0  0  0  0  0  0  0  0  0  0  0  0
   -0.9966   -2.3988    0.0000 C   0  0  0  0  0  0  0  0  0  0  0  0
   -0.1842   -2.5420    0.0000 C   0  0  0  0  0  0  0  0  0  0  0  0
    0.0980   -3.3173    0.0000 O   0  0  0  0  0  0  0  0  0  0  0  0
    0.3461   -1.9100    0.0000 O   0  0  0  0  0  0  0  0  0  0  0  0
    1.1586   -2.0533    0.0000 C   0  0  0  0  0  0  0  0  0  0  0  0
   -1.2788   -1.6235    0.0000 C   0  0  0  0  0  0  0  0  0  0  0  0
   -0.7485   -0.9915    0.0000 O   0  0  0  0  0  0  0  0  0  0  0  0
   -2.0913   -1.4803    0.0000 C   0  0  0  0  0  0  0  0  0  0  0  0
   -2.6216   -2.1123    0.0000 C   0  0  0  0  0  0  0  0  0  0  0  0
   -3.4340   -1.9690    0.0000 N   0  0  0  0  0  0  0  0  0  0  0  0
   -3.7162   -1.1937    0.0000 C   0  0  0  0  0  0  0  0  0  0  0  0
   -3.1859   -0.5618    0.0000 N   0  0  0  0  0  0  0  0  0  0  0  0
   -2.3734   -0.7050    0.0000 C   0  0  0  0  0  0  0  0  0  0  0  0
   -4.5287   -1.0505    0.0000 N   0  0  0  0  0  0  0  0  0  0  0  0
   -5.0590   -1.6825    0.0000 C   0  0  0  0  0  0  0  0  0  0  0  0
   -5.8714   -1.5392    0.0000 C   0  0  0  0  0  0  0  0  0  0  0  0
   -6.1536   -0.7640    0.0000 C   0  0  0  0  0  0  0  0  0  0  0  0
   -5.6233   -0.1320    0.0000 C   0  0  0  0  0  0  0  0  0  0  0  0
   -4.8108   -0.2752    0.0000 C   0  0  0  0  0  0  0  0  0  0  0  0
  1  2  1  0  0  0  0
  2  3  1  0  0  0  0
  3  4  1  0  0  0  0
  4  5  1  0  0  0  0
  5  6  1  0  0  0  0
  6  7  1  0  0  0  0
  7  8  1  0  0  0  0
  8  9  1  0  0  0  0
  9 10  2  0  0  0  0
 10 11  1  0  0  0  0
 11 12  1  0  0  0  0
 11 13  2  0  0  0  0
 13 14  1  0  0  0  0
 14 15  2  0  0  0  0
  9 15  1  0  0  0  0
 15 16  1  0  0  0  0
  7 17  2  0  0  0  0
  3 17  1  0  0  0  0
  3 18  1  0  0  0  0
 18 19  1  0  0  0  0
 19 20  2  0  0  0  0
 19 21  1  0  0  0  0
 21 22  1  0  0  0  0
 18 23  1  0  0  0  0
 23 24  2  0  0  0  0
 23 25  1  0  0  0  0
 25 26  2  0  0  0  0
 26 27  1  0  0  0  0
 27 28  2  0  0  0  0
 28 29  1  0  0  0  0
 29 30  2  0  0  0  0
 25 30  1  0  0  0  0
 28 31  1  0  0  0  0
 31 32  1  0  0  0  0
 32 33  1  0  0  0  0
 33 34  1  0  0  0  0
 34 35  1  0  0  0  0
 35 36  1  0  0  0  0
 31 36  1  0  0  0  0
M  END
> <ID>
CPD_1842

$$$$
CPD_1847
  Mrv1822 09091914012D          

 31 34  0  0  0  0            999 V2000
   -0.1875   -0.7604    0.0000 H   0  0  0  0  0  0  0  0  0  0  0  0
   -0.9355   -0.4125    0.0000 O   0  0  0  0  0  0  0  0  0  0  0  0
   -0.9355    0.4125    0.0000 C   0  0  0  0  0  0  0  0  0  0  0  0
   -0.1105    0.4125    0.0000 C   0  0  0  0  0  0  0  0  0  0  0  0
    0.3020    1.1270    0.0000 C   0  0  0  0  0  0  0  0  0  0  0  0
    1.1270    1.1270    0.0000 O   0  0  0  0  0  0  0  0  0  0  0  0
    1.5395    0.4125    0.0000 C   0  0  0  0  0  0  0  0  0  0  0  0
    1.9520    1.1270    0.0000 C   0  0  0  0  0  0  0  0  0  0  0  0
    2.7770    1.1270    0.0000 C   0  0  0  0  0  0  0  0  0  0  0  0
    3.1895    0.4125    0.0000 O   0  0  0  0  0  0  0  0  0  0  0  0
    2.7770   -0.3020    0.0000 C   0  0  0  0  0  0  0  0  0  0  0  0
    1.9520   -0.3020    0.0000 C   0  0  0  0  0  0  0  0  0  0  0  0
    1.1270   -0.3020    0.0000 C   0  0  0  0  0  0  0  0  0  0  0  0
    0.3020   -0.3020    0.0000 C   0  0  0  0  0  0  0  0  0  0  0  0
   -0.1105   -1.0164    0.0000 O   0  0  0  0  0  0  0  0  0  0  0  0
   -1.7605    0.4125    0.0000 C   0  0  0  0  0  0  0  0  0  0  0  0
   -2.1185    1.1558    0.0000 C   0  0  0  0  0  0  0  0  0  0  0  0
   -2.9228    1.3394    0.0000 C   0  0  0  0  0  0  0  0  0  0  0  0
   -3.5678    0.8250    0.0000 C   0  0  0  0  0  0  0  0  0  0  0  0
   -3.5678    0.0000    0.0000 C   0  0  0  0  0  0  0  0  0  0  0  0
   -2.9228   -0.5144    0.0000 N   0  0  0  0  0  0  0  0  0  0  0  0
   -3.1064   -1.3187    0.0000 C   0  0  0  0  0  0  0  0  0  0  0  0
   -2.5016   -1.8798    0.0000 C   0  0  0  0  0  0  0  0  0  0  0  0
   -2.1185   -0.3308    0.0000 C   0  0  0  0  0  0  0  0  0  0  0  0
   -1.6041   -0.9758    0.0000 O   0  0  0  0  0  0  0  0  0  0  0  0
   -0.9355    1.2375    0.0000 C   0  0  0  0  0  0  0  0  0  0  0  0
   -1.6500    1.6500    0.0000 C   0  0  0  0  0  0  0  0  0  0  0  0
   -1.6500    2.4750    0.0000 C   0  0  0  0  0  0  0  0  0  0  0  0
   -0.9355    2.8875    0.0000 N   0  0  0  0  0  0  0  0  0  0  0  0
   -0.2211    2.4750    0.0000 C   0  0  0  0  0  0  0  0  0  0  0  0
   -0.2211    1.6500    0.0000 C   0  0  0  0  0  0  0  0  0  0  0  0
  1  2  1  0  0  0  0
  2  3  1  0  0  0  0
  3  4  1  0  0  0  0
  4  5  1  0  0  0  0
  5  6  1  0  0  0  0
  6  7  1  0  0  0  0
  7  8  1  0  0  0  0
  8  9  1  0  0  0  0
  9 10  1  0  0  0  0
 10 11  1  0  0  0  0
 11 12  1  0  0  0  0
  7 12  1  0  0  0  0
  7 13  1  0  0  0  0
 13 14  1  0  0  0  0
  4 14  1  0  0  0  0
 14 15  2  0  0  0  0
  3 16  1  0  0  0  0
 16 17  1  0  0  0  0
 17 18  1  0  0  0  0
 18 19  1  0  0  0  0
 19 20  1  0  0  0  0
 20 21  1  0  0  0  0
 21 22  1  0  0  0  0
 22 23  2  0  0  0  0
 21 24  1  0  0  0  0
 16 24  1  0  0  0  0
 24 25  2  0  0  0  0
  3 26  1  0  0  0  0
 26 27  2  0  0  0  0
 27 28  1  0  0  0  0
 28 29  2  0  0  0  0
 29 30  1  0  0  0  0
 30 31  2  0  0  0  0
 26 31  1  0  0  0  0
M  END
> <ID>
CPD_1847

$$$$
CPD_1852
  Mrv1822 09091914012D          

 24 27  0  0  0  0            999 V2000
    2.6065   -1.2533    0.0000 H   0  0  0  0  0  0  0  0  0  0  0  0
    2.2069   -0.5315    0.0000 O   0  0  0  0  0  0  0  0  0  0  0  0
    1.5395   -1.0164    0.0000 C   0  0  0  0  0  0  0  0  0  0  0  0
    0.7858   -1.3520    0.0000 C   0  0  0  0  0  0  0  0  0  0  0  0
    0.8720   -2.1725    0.0000 C   0  0  0  0  0  0  0  0  0  0  0  0
    1.1270   -2.9571    0.0000 C   0  0  0  0  0  0  0  0  0  0  0  0
    1.6790   -2.3440    0.0000 C   0  0  0  0  0  0  0  0  0  0  0  0
    2.0915   -1.6295    0.0000 C   0  0  0  0  0  0  0  0  0  0  0  0
    2.9120   -1.5433    0.0000 C   0  0  0  0  0  0  0  0  0  0  0  0
    0.0651   -2.3440    0.0000 C   0  0  0  0  0  0  0  0  0  0  0  0
   -0.1899   -3.1286    0.0000 C   0  0  0  0  0  0  0  0  0  0  0  0
   -0.4870   -1.7309    0.0000 C   0  0  0  0  0  0  0  0  0  0  0  0
    1.1270   -0.3020    0.0000 C   0  0  0  0  0  0  0  0  0  0  0  0
    0.3020   -0.3020    0.0000 C   0  0  0  0  0  0  0  0  0  0  0  0
   -0.1105   -1.0164    0.0000 O   0  0  0  0  0  0  0  0  0  0  0  0
   -0.1105    0.4125    0.0000 C   0  0  0  0  0  0  0  0  0  0  0  0
    0.3020    1.1270    0.0000 C   0  0  0  0  0  0  0  0  0  0  0  0
    1.1270    1.1270    0.0000 O   0  0  0  0  0  0  0  0  0  0  0  0
    1.5395    0.4125    0.0000 C   0  0  0  0  0  0  0  0  0  0  0  0
    1.9520    1.1270    0.0000 C   0  0  0  0  0  0  0  0  0  0  0  0
    2.7770    1.1270    0.0000 C   0  0  0  0  0  0  0  0  0  0  0  0
    3.1895    0.4125    0.0000 O   0  0  0  0  0  0  0  0  0  0  0  0
    2.7770   -0.3020    0.0000 C   0  0  0  0  0  0  0  0  0  0  0  0
    1.9520   -0.3020    0.0000 C   0  0  0  0  0  0  0  0  0  0  0  0
  1  2  1  0  0  0  0
  2  3  1  0  0  0  0
  3  4  1  0  0  0  0
  4  5  1  0  0  0  0
  5  6  1  0  0  0  0
  6  7  1  0  0  0  0
  5  7  1  0  0  0  0
  7  8  1  0  0  0  0
  3  8  1  0  0  0  0
  8  9  1  0  0  0  0
  5 10  1  0  0  0  0
 10 11  1  0  0  0  0
 10 12  1  0  0  0  0
  3 13  1  0  0  0  0
 13 14  1  0  0  0  0
 14 15  2  0  0  0  0
 14 16  1  0  0  0  0
 16 17  1  0  0  0  0
 17 18  1  0  0  0  0
 18 19  1  0  0  0  0
 13 19  1  0  0  0  0
 19 20  1  0  0  0  0
 20 21  1  0  0  0  0
 21 22  1  0  0  0  0
 22 23  1  0  0  0  0
 23 24  1  0  0  0  0
 19 24  1  0  0  0  0
M  END
> <ID>
CPD_1852

$$$$
CPD_1857
  Mrv1822 09091914012D          

 39 43  0  0  0  0            999 V2000
    2.8579    0.8250    0.0000 H   0  0  0  0  0  0  0  0  0  0  0  0
    2.1434    1.2375    0.0000 O   0  0  0  0  0  0  0  0  0  0  0  0
    1.4289    0.8250    0.0000 C   0  0  0  0  0  0  0  0  0  0  0  0
    0.7145    1.2375    0.0000 C   0  0  0  0  0  0  0  0  0  0  0  0
    0.7145    2.0625    0.0000 C   0  0  0  0  0  0  0  0  0  0  0  0
    0.0000    2.4750    0.0000 O   0  0  0  0  0  0  0  0  0  0  0  0
    1.4289    2.4750    0.0000 C   0  0  0  0  0  0  0  0  0  0  0  0
    1.4289    3.3000    0.0000 C   0  0  0  0  0  0  0  0  0  0  0  0
    2.1434    3.7125    0.0000 C   0  0  0  0  0  0  0  0  0  0  0  0
    2.8579    3.3000    0.0000 C   0  0  0  0  0  0  0  0  0  0  0  0
    2.8579    2.4750    0.0000 C   0  0  0  0  0  0  0  0  0  0  0  0
    2.1434    2.0625    0.0000 N   0  0  0  0  0  0  0  0  0  0  0  0
    0.0000    0.8250    0.0000 C   0  0  0  0  0  0  0  0  0  0  0  0
    0.4849    0.1576    0.0000 O   0  0  0  0  0  0  0  0  0  0  0  0
   -0.3356    1.5787    0.0000 C   0  0  0  0  0  0  0  0  0  0  0  0
   -0.4218    2.3992    0.0000 O   0  0  0  0  0  0  0  0  0  0  0  0
   -1.1560    1.4924    0.0000 N   0  0  0  0  0  0  0  0  0  0  0  0
   -1.7081    2.1055    0.0000 C   0  0  0  0  0  0  0  0  0  0  0  0
   -2.5150    1.9340    0.0000 C   0  0  0  0  0  0  0  0  0  0  0  0
   -3.0671    2.5471    0.0000 C   0  0  0  0  0  0  0  0  0  0  0  0
   -3.8740    2.3756    0.0000 C   0  0  0  0  0  0  0  0  0  0  0  0
   -4.6810    2.2040    0.0000 N   0  0  0  0  0  0  0  0  0  0  0  0
   -1.3276    0.6855    0.0000 C   0  0  0  0  0  0  0  0  0  0  0  0
   -0.6131    0.2730    0.0000 C   0  0  0  0  0  0  0  0  0  0  0  0
   -0.6131   -0.5520    0.0000 C   0  0  0  0  0  0  0  0  0  0  0  0
   -1.3276   -0.9645    0.0000 C   0  0  0  0  0  0  0  0  0  0  0  0
   -2.0420   -0.5520    0.0000 C   0  0  0  0  0  0  0  0  0  0  0  0
   -2.0420    0.2730    0.0000 C   0  0  0  0  0  0  0  0  0  0  0  0
    1.4289    0.0000    0.0000 C   0  0  0  0  0  0  0  0  0  0  0  0
    2.1434   -0.4125    0.0000 C   0  0  0  0  0  0  0  0  0  0  0  0
    2.8579    0.0000    0.0000 C   0  0  0  0  0  0  0  0  0  0  0  0
    3.5724   -0.4125    0.0000 C   0  0  0  0  0  0  0  0  0  0  0  0
    3.5724   -1.2375    0.0000 C   0  0  0  0  0  0  0  0  0  0  0  0
    2.8579   -1.6500    0.0000 C   0  0  0  0  0  0  0  0  0  0  0  0
    2.1434   -1.2375    0.0000 C   0  0  0  0  0  0  0  0  0  0  0  0
    1.4289   -1.6500    0.0000 C   0  0  0  0  0  0  0  0  0  0  0  0
    0.7145   -1.2375    0.0000 C   0  0  0  0  0  0  0  0  0  0  0  0
    0.7145   -0.4125    0.0000 C   0  0  0  0  0  0  0  0  0  0  0  0
    0.0000   -0.0000    0.0000 O   0  0  0  0  0  0  0  0  0  0  0  0
  1  2  1  0  0  0  0
  2  3  1  0  0  0  0
  3  4  1  0  0  0  0
  4  5  1  0  0  0  0
  5  6  2  0  0  0  0
  5  7  1  0  0  0  0
  7  8  2  0  0  0  0
  8  9  1  0  0  0  0
  9 10  2  0  0  0  0
 10 11  1  0  0  0  0
 11 12  2  0  0  0  0
  7 12  1  0  0  0  0
  4 13  1  0  0  0  0
 13 14  1  0  0  0  0
 13 15  1  0  0  0  0
 15 16  2  0  0  0  0
 15 17  1  0  0  0  0
 17 18  1  0  0  0  0
 18 19  1  0  0  0  0
 19 20  1  0  0  0  0
 20 21  1  0  0  0  0
 21 22  3  0  0  0  0
 17 23  1  0  0  0  0
 23 24  2  0  0  0  0
 13 24  1  0  0  0  0
 24 25  1  0  0  0  0
 25 26  2  0  0  0  0
 26 27  1  0  0  0  0
 27 28  2  0  0  0  0
 23 28  1  0  0  0  0
  3 29  1  0  0  0  0
 29 30  2  0  0  0  0
 30 31  1  0  0  0  0
 31 32  2  0  0  0  0
 32 33  1  0  0  0  0
 33 34  2  0  0  0  0
 34 35  1  0  0  0  0
 30 35  1  0  0  0  0
 35 36  2  0  0  0  0
 36 37  1  0  0  0  0
 37 38  2  0  0  0  0
 29 38  1  0  0  0  0
 38 39  1  0  0  0  0
M  END
> <ID>
CPD_1857

$$$$
CPD_1862
  Mrv1822 09091914012D          

 23 24  0  0  0  0            999 V2000
   -2.1679   -1.9354    0.0000 H   0  0  0  0  0  0  0  0  0  0  0  0
   -1.4534   -1.5229    0.0000 O   0  0  0  0  0  0  0  0  0  0  0  0
   -1.4534   -0.6979    0.0000 C   0  0  0  0  0  0  0  0  0  0  0  0
   -1.4534    0.1271    0.0000 C   0  0  0  0  0  0  0  0  0  0  0  0
   -2.2784   -0.6979    0.0000 C   0  0  0  0  0  0  0  0  0  0  0  0
   -2.6909    0.0165    0.0000 C   0  0  0  0  0  0  0  0  0  0  0  0
   -3.5159    0.0165    0.0000 C   0  0  0  0  0  0  0  0  0  0  0  0
   -2.6909   -1.4124    0.0000 C   0  0  0  0  0  0  0  0  0  0  0  0
   -3.5159   -1.4124    0.0000 C   0  0  0  0  0  0  0  0  0  0  0  0
   -2.2784   -2.1269    0.0000 O   0  0  0  0  0  0  0  0  0  0  0  0
   -0.6284   -0.6979    0.0000 C   0  0  0  0  0  0  0  0  0  0  0  0
   -0.1435   -1.3654    0.0000 C   0  0  0  0  0  0  0  0  0  0  0  0
   -0.3984   -2.1500    0.0000 O   0  0  0  0  0  0  0  0  0  0  0  0
    0.6411   -1.1104    0.0000 C   0  0  0  0  0  0  0  0  0  0  0  0
    0.6411   -0.2854    0.0000 C   0  0  0  0  0  0  0  0  0  0  0  0
    1.3556    0.1271    0.0000 C   0  0  0  0  0  0  0  0  0  0  0  0
    2.0701   -0.2854    0.0000 C   0  0  0  0  0  0  0  0  0  0  0  0
    2.0701   -1.1104    0.0000 C   0  0  0  0  0  0  0  0  0  0  0  0
    2.7845   -1.5229    0.0000 C   0  0  0  0  0  0  0  0  0  0  0  0
    1.3556   -1.5229    0.0000 C   0  0  0  0  0  0  0  0  0  0  0  0
   -0.1435   -0.0305    0.0000 C   0  0  0  0  0  0  0  0  0  0  0  0
    0.0196    0.7782    0.0000 C   0  0  0  0  0  0  0  0  0  0  0  0
   -0.7508    0.5279    0.0000 C   0  0  0  0  0  0  0  0  0  0  0  0
  1  2  1  0  0  0  0
  2  3  1  0  0  0  0
  3  4  1  0  0  0  0
  3  5  1  0  0  0  0
  5  6  1  0  0  0  0
  6  7  1  0  0  0  0
  5  8  1  0  0  0  0
  8  9  1  0  0  0  0
  8 10  2  0  0  0  0
  3 11  1  0  0  0  0
 11 12  1  0  0  0  0
 12 13  2  0  0  0  0
 12 14  1  0  0  0  0
 14 15  2  0  0  0  0
 15 16  1  0  0  0  0
 16 17  2  0  0  0  0
 17 18  1  0  0  0  0
 18 19  1  0  0  0  0
 18 20  2  0  0  0  0
 14 20  1  0  0  0  0
 15 21  1  0  0  0  0
 11 21  1  0  0  0  0
 21 22  1  0  0  0  0
 21 23  1  0  0  0  0
M  END
> <ID>
CPD_1862

$$$$
CPD_1867
  Mrv1822 09091914012D          

 29 32  0  0  0  0            999 V2000
   -2.1668    0.5414    0.0000 H   0  0  0  0  0  0  0  0  0  0  0  0
   -1.4534    0.1271    0.0000 O   0  0  0  0  0  0  0  0  0  0  0  0
   -1.4534   -0.6979    0.0000 C   0  0  0  0  0  0  0  0  0  0  0  0
   -1.4534   -1.5229    0.0000 C   0  0  0  0  0  0  0  0  0  0  0  0
   -0.6284   -0.6979    0.0000 C   0  0  0  0  0  0  0  0  0  0  0  0
   -0.1435   -1.3654    0.0000 C   0  0  0  0  0  0  0  0  0  0  0  0
   -0.3984   -2.1500    0.0000 O   0  0  0  0  0  0  0  0  0  0  0  0
    0.6411   -1.1104    0.0000 C   0  0  0  0  0  0  0  0  0  0  0  0
    0.6411   -0.2854    0.0000 C   0  0  0  0  0  0  0  0  0  0  0  0
    1.3556    0.1271    0.0000 C   0  0  0  0  0  0  0  0  0  0  0  0
    2.0701   -0.2854    0.0000 C   0  0  0  0  0  0  0  0  0  0  0  0
    2.0701   -1.1104    0.0000 C   0  0  0  0  0  0  0  0  0  0  0  0
    2.7845   -1.5229    0.0000 C   0  0  0  0  0  0  0  0  0  0  0  0
    1.3556   -1.5229    0.0000 C   0  0  0  0  0  0  0  0  0  0  0  0
   -0.1435   -0.0305    0.0000 C   0  0  0  0  0  0  0  0  0  0  0  0
    0.0196    0.7782    0.0000 C   0  0  0  0  0  0  0  0  0  0  0  0
   -0.7508    0.5279    0.0000 C   0  0  0  0  0  0  0  0  0  0  0  0
   -2.2784   -0.6979    0.0000 C   0  0  0  0  0  0  0  0  0  0  0  0
   -2.6909   -1.4124    0.0000 C   0  0  0  0  0  0  0  0  0  0  0  0
   -3.5159   -1.4124    0.0000 C   0  0  0  0  0  0  0  0  0  0  0  0
   -3.9284   -0.6979    0.0000 C   0  0  0  0  0  0  0  0  0  0  0  0
   -3.5159    0.0165    0.0000 C   0  0  0  0  0  0  0  0  0  0  0  0
   -2.6909    0.0165    0.0000 C   0  0  0  0  0  0  0  0  0  0  0  0
   -4.7534   -0.6979    0.0000 N   0  0  0  0  0  0  0  0  0  0  0  0
   -5.1659   -1.4124    0.0000 C   0  0  0  0  0  0  0  0  0  0  0  0
   -5.9909   -1.4124    0.0000 C   0  0  0  0  0  0  0  0  0  0  0  0
   -6.4034   -0.6979    0.0000 O   0  0  0  0  0  0  0  0  0  0  0  0
   -5.9909    0.0165    0.0000 C   0  0  0  0  0  0  0  0  0  0  0  0
   -5.1659    0.0165    0.0000 C   0  0  0  0  0  0  0  0  0  0  0  0
  1  2  1  0  0  0  0
  2  3  1  0  0  0  0
  3  4  1  0  0  0  0
  3  5  1  0  0  0  0
  5  6  1  0  0  0  0
  6  7  2  0  0  0  0
  6  8  1  0  0  0  0
  8  9  2  0  0  0  0
  9 10  1  0  0  0  0
 10 11  2  0  0  0  0
 11 12  1  0  0  0  0
 12 13  1  0  0  0  0
 12 14  2  0  0  0  0
  8 14  1  0  0  0  0
  9 15  1  0  0  0  0
  5 15  1  0  0  0  0
 15 16  1  0  0  0  0
 15 17  1  0  0  0  0
  3 18  1  0  0  0  0
 18 19  2  0  0  0  0
 19 20  1  0  0  0  0
 20 21  2  0  0  0  0
 21 22  1  0  0  0  0
 22 23  2  0  0  0  0
 18 23  1  0  0  0  0
 21 24  1  0  0  0  0
 24 25  1  0  0  0  0
 25 26  1  0  0  0  0
 26 27  1  0  0  0  0
 27 28  1  0  0  0  0
 28 29  1  0  0  0  0
 24 29  1  0  0  0  0
M  END
> <ID>
CPD_1867

$$$$
CPD_1872
  Mrv1822 09091914012D          

 29 32  0  0  0  0            999 V2000
    1.1809   -3.5477    0.0000 H   0  0  0  0  0  0  0  0  0  0  0  0
    1.4358   -2.7631    0.0000 O   0  0  0  0  0  0  0  0  0  0  0  0
    0.8838   -2.1500    0.0000 C   0  0  0  0  0  0  0  0  0  0  0  0
    0.0768   -2.3215    0.0000 C   0  0  0  0  0  0  0  0  0  0  0  0
   -0.3725   -3.0134    0.0000 C   0  0  0  0  0  0  0  0  0  0  0  0
   -1.0644   -2.5641    0.0000 C   0  0  0  0  0  0  0  0  0  0  0  0
   -1.3194   -3.3487    0.0000 C   0  0  0  0  0  0  0  0  0  0  0  0
   -2.1263   -3.5203    0.0000 C   0  0  0  0  0  0  0  0  0  0  0  0
   -2.6784   -2.9072    0.0000 N   0  0  0  0  0  0  0  0  0  0  0  0
   -2.4234   -2.1225    0.0000 C   0  0  0  0  0  0  0  0  0  0  0  0
   -1.6165   -1.9510    0.0000 C   0  0  0  0  0  0  0  0  0  0  0  0
   -3.4853   -3.0787    0.0000 C   0  0  0  0  0  0  0  0  0  0  0  0
   -3.7403   -3.8633    0.0000 O   0  0  0  0  0  0  0  0  0  0  0  0
   -4.0374   -2.4656    0.0000 O   0  0  0  0  0  0  0  0  0  0  0  0
   -4.8443   -2.6371    0.0000 C   0  0  0  0  0  0  0  0  0  0  0  0
   -5.6513   -2.8086    0.0000 C   0  0  0  0  0  0  0  0  0  0  0  0
   -4.6728   -3.4441    0.0000 C   0  0  0  0  0  0  0  0  0  0  0  0
   -5.0159   -1.8301    0.0000 C   0  0  0  0  0  0  0  0  0  0  0  0
   -0.6151   -1.8722    0.0000 C   0  0  0  0  0  0  0  0  0  0  0  0
   -0.7866   -1.0652    0.0000 O   0  0  0  0  0  0  0  0  0  0  0  0
    1.1387   -1.3654    0.0000 C   0  0  0  0  0  0  0  0  0  0  0  0
    0.6538   -0.6979    0.0000 C   0  0  0  0  0  0  0  0  0  0  0  0
    1.1387   -0.0305    0.0000 N   0  0  0  0  0  0  0  0  0  0  0  0
    1.9233   -0.2854    0.0000 C   0  0  0  0  0  0  0  0  0  0  0  0
    2.6378    0.1271    0.0000 N   0  0  0  0  0  0  0  0  0  0  0  0
    3.3523   -0.2854    0.0000 C   0  0  0  0  0  0  0  0  0  0  0  0
    3.3523   -1.1104    0.0000 C   0  0  0  0  0  0  0  0  0  0  0  0
    2.6378   -1.5229    0.0000 C   0  0  0  0  0  0  0  0  0  0  0  0
    1.9233   -1.1104    0.0000 C   0  0  0  0  0  0  0  0  0  0  0  0
  1  2  1  0  0  0  0
  2  3  1  0  0  0  0
  3  4  1  0  0  0  0
  4  5  1  0  0  0  0
  5  6  1  0  0  0  0
  6  7  1  0  0  0  0
  7  8  1  0  0  0  0
  8  9  1  0  0  0  0
  9 10  1  0  0  0  0
 10 11  1  0  0  0  0
  6 11  1  0  0  0  0
  9 12  1  0  0  0  0
 12 13  2  0  0  0  0
 12 14  1  0  0  0  0
 14 15  1  0  0  0  0
 15 16  1  0  0  0  0
 15 17  1  0  0  0  0
 15 18  1  0  0  0  0
  6 19  1  0  0  0  0
  4 19  1  0  0  0  0
 19 20  2  0  0  0  0
  3 21  1  0  0  0  0
 21 22  2  0  0  0  0
 22 23  1  0  0  0  0
 23 24  1  0  0  0  0
 24 25  2  0  0  0  0
 25 26  1  0  0  0  0
 26 27  2  0  0  0  0
 27 28  1  0  0  0  0
 28 29  2  0  0  0  0
 21 29  1  0  0  0  0
 24 29  1  0  0  0  0
M  END
> <ID>
CPD_1872

$$$$
CPD_1877
  Mrv1822 09091914012D          

 30 32  0  0  0  0            999 V2000
   -0.2814    1.6500    0.0000 H   0  0  0  0  0  0  0  0  0  0  0  0
   -0.9959    1.2375    0.0000 O   0  0  0  0  0  0  0  0  0  0  0  0
   -0.9959    0.4125    0.0000 C   0  0  0  0  0  0  0  0  0  0  0  0
   -0.9959   -0.4125    0.0000 C   0  0  0  0  0  0  0  0  0  0  0  0
   -0.1709    0.4125    0.0000 C   0  0  0  0  0  0  0  0  0  0  0  0
    0.4125    0.9959    0.0000 C   0  0  0  0  0  0  0  0  0  0  0  0
    0.9959    0.4125    0.0000 C   0  0  0  0  0  0  0  0  0  0  0  0
    1.4084    1.1270    0.0000 C   0  0  0  0  0  0  0  0  0  0  0  0
    2.2334    1.1270    0.0000 C   0  0  0  0  0  0  0  0  0  0  0  0
    2.6459    0.4125    0.0000 N   0  0  0  0  0  0  0  0  0  0  0  0
    2.2334   -0.3020    0.0000 C   0  0  0  0  0  0  0  0  0  0  0  0
    1.4084   -0.3020    0.0000 C   0  0  0  0  0  0  0  0  0  0  0  0
    3.4709    0.4125    0.0000 C   0  0  0  0  0  0  0  0  0  0  0  0
    3.8834    1.1270    0.0000 O   0  0  0  0  0  0  0  0  0  0  0  0
    3.8834   -0.3020    0.0000 O   0  0  0  0  0  0  0  0  0  0  0  0
    4.7084   -0.3020    0.0000 C   0  0  0  0  0  0  0  0  0  0  0  0
    5.5334   -0.3020    0.0000 C   0  0  0  0  0  0  0  0  0  0  0  0
    4.7084    0.5230    0.0000 C   0  0  0  0  0  0  0  0  0  0  0  0
    4.7084   -1.1270    0.0000 C   0  0  0  0  0  0  0  0  0  0  0  0
    0.4125   -0.1709    0.0000 C   0  0  0  0  0  0  0  0  0  0  0  0
    0.4125   -0.9959    0.0000 O   0  0  0  0  0  0  0  0  0  0  0  0
   -1.8209    0.4125    0.0000 C   0  0  0  0  0  0  0  0  0  0  0  0
   -2.2334   -0.3020    0.0000 N   0  0  0  0  0  0  0  0  0  0  0  0
   -3.0584   -0.3020    0.0000 C   0  0  0  0  0  0  0  0  0  0  0  0
   -3.4709    0.4125    0.0000 C   0  0  0  0  0  0  0  0  0  0  0  0
   -3.0584    1.1270    0.0000 C   0  0  0  0  0  0  0  0  0  0  0  0
   -2.2334    1.1270    0.0000 C   0  0  0  0  0  0  0  0  0  0  0  0
   -3.4709   -1.0164    0.0000 C   0  0  0  0  0  0  0  0  0  0  0  0
   -3.0584   -1.7309    0.0000 C   0  0  0  0  0  0  0  0  0  0  0  0
   -4.2959   -1.0164    0.0000 O   0  0  0  0  0  0  0  0  0  0  0  0
  1  2  1  0  0  0  0
  2  3  1  0  0  0  0
  3  4  1  0  0  0  0
  3  5  1  0  0  0  0
  5  6  1  0  0  0  0
  6  7  1  0  0  0  0
  7  8  1  0  0  0  0
  8  9  1  0  0  0  0
  9 10  1  0  0  0  0
 10 11  1  0  0  0  0
 11 12  1  0  0  0  0
  7 12  1  0  0  0  0
 10 13  1  0  0  0  0
 13 14  2  0  0  0  0
 13 15  1  0  0  0  0
 15 16  1  0  0  0  0
 16 17  1  0  0  0  0
 16 18  1  0  0  0  0
 16 19  1  0  0  0  0
  7 20  1  0  0  0  0
  5 20  1  0  0  0  0
 20 21  2  0  0  0  0
  3 22  1  0  0  0  0
 22 23  2  0  0  0  0
 23 24  1  0  0  0  0
 24 25  2  0  0  0  0
 25 26  1  0  0  0  0
 26 27  2  0  0  0  0
 22 27  1  0  0  0  0
 24 28  1  0  0  0  0
 28 29  1  0  0  0  0
 28 30  2  0  0  0  0
M  END
> <ID>
CPD_1877

$$$$
CPD_1882
  Mrv1822 09091914012D          

 35 38  0  0  0  0            999 V2000
    0.4106    1.9026    0.0000 H   0  0  0  0  0  0  0  0  0  0  0  0
   -0.0330    1.2070    0.0000 O   0  0  0  0  0  0  0  0  0  0  0  0
   -0.8580    1.2070    0.0000 C   0  0  0  0  0  0  0  0  0  0  0  0
   -0.8580    0.3820    0.0000 C   0  0  0  0  0  0  0  0  0  0  0  0
   -0.1435   -0.0305    0.0000 C   0  0  0  0  0  0  0  0  0  0  0  0
    0.1921    0.7232    0.0000 O   0  0  0  0  0  0  0  0  0  0  0  0
   -0.6284   -0.6979    0.0000 C   0  0  0  0  0  0  0  0  0  0  0  0
   -1.4534   -0.6979    0.0000 O   0  0  0  0  0  0  0  0  0  0  0  0
   -0.1435   -1.3654    0.0000 N   0  0  0  0  0  0  0  0  0  0  0  0
   -0.3984   -2.1500    0.0000 C   0  0  0  0  0  0  0  0  0  0  0  0
    0.1536   -2.7631    0.0000 C   0  0  0  0  0  0  0  0  0  0  0  0
   -1.2054   -2.3215    0.0000 C   0  0  0  0  0  0  0  0  0  0  0  0
    0.6411   -1.1104    0.0000 C   0  0  0  0  0  0  0  0  0  0  0  0
    0.6411   -0.2854    0.0000 C   0  0  0  0  0  0  0  0  0  0  0  0
    1.3556    0.1271    0.0000 C   0  0  0  0  0  0  0  0  0  0  0  0
    2.0701   -0.2854    0.0000 C   0  0  0  0  0  0  0  0  0  0  0  0
    2.0701   -1.1104    0.0000 C   0  0  0  0  0  0  0  0  0  0  0  0
    1.3556   -1.5229    0.0000 C   0  0  0  0  0  0  0  0  0  0  0  0
   -1.6830    1.2070    0.0000 C   0  0  0  0  0  0  0  0  0  0  0  0
   -2.0955    0.4925    0.0000 N   0  0  0  0  0  0  0  0  0  0  0  0
   -1.7599   -0.2611    0.0000 C   0  0  0  0  0  0  0  0  0  0  0  0
   -0.9529   -0.4327    0.0000 Cl  0  0  0  0  0  0  0  0  0  0  0  0
   -2.3730   -0.8132    0.0000 N   0  0  0  0  0  0  0  0  0  0  0  0
   -3.0875   -0.4007    0.0000 N   0  0  0  0  0  0  0  0  0  0  0  0
   -2.9160    0.4063    0.0000 C   0  0  0  0  0  0  0  0  0  0  0  0
   -3.4680    1.0194    0.0000 Cl  0  0  0  0  0  0  0  0  0  0  0  0
   -2.0955    1.9215    0.0000 C   0  0  0  0  0  0  0  0  0  0  0  0
   -2.9205    1.9215    0.0000 C   0  0  0  0  0  0  0  0  0  0  0  0
   -1.9240    2.7284    0.0000 O   0  0  0  0  0  0  0  0  0  0  0  0
   -0.8580    2.0320    0.0000 C   0  0  0  0  0  0  0  0  0  0  0  0
   -1.5724    2.4445    0.0000 C   0  0  0  0  0  0  0  0  0  0  0  0
   -1.5724    3.2695    0.0000 C   0  0  0  0  0  0  0  0  0  0  0  0
   -0.8580    3.6820    0.0000 N   0  0  0  0  0  0  0  0  0  0  0  0
   -0.1435    3.2695    0.0000 C   0  0  0  0  0  0  0  0  0  0  0  0
   -0.1435    2.4445    0.0000 C   0  0  0  0  0  0  0  0  0  0  0  0
  1  2  1  0  0  0  0
  2  3  1  0  0  0  0
  3  4  1  0  0  0  0
  4  5  1  0  0  0  0
  5  6  1  0  0  0  0
  5  7  1  0  0  0  0
  7  8  2  0  0  0  0
  7  9  1  0  0  0  0
  9 10  1  0  0  0  0
 10 11  1  0  0  0  0
 10 12  1  0  0  0  0
  9 13  1  0  0  0  0
 13 14  2  0  0  0  0
  5 14  1  0  0  0  0
 14 15  1  0  0  0  0
 15 16  2  0  0  0  0
 16 17  1  0  0  0  0
 17 18  2  0  0  0  0
 13 18  1  0  0  0  0
  3 19  1  0  0  0  0
 19 20  1  0  0  0  0
 20 21  1  0  0  0  0
 21 22  1  0  0  0  0
 21 23  2  0  0  0  0
 23 24  1  0  0  0  0
 24 25  2  0  0  0  0
 20 25  1  0  0  0  0
 25 26  1  0  0  0  0
 19 27  1  0  0  0  0
 27 28  1  0  0  0  0
 27 29  2  0  0  0  0
  3 30  1  0  0  0  0
 30 31  2  0  0  0  0
 31 32  1  0  0  0  0
 32 33  2  0  0  0  0
 33 34  1  0  0  0  0
 34 35  2  0  0  0  0
 30 35  1  0  0  0  0
M  END
> <ID>
CPD_1882

$$$$
CPD_1887
  Mrv1822 09091914012D          

 38 41  0  0  0  0            999 V2000
    0.4106    1.9026    0.0000 H   0  0  0  0  0  0  0  0  0  0  0  0
   -0.0330    1.2070    0.0000 O   0  0  0  0  0  0  0  0  0  0  0  0
   -0.8580    1.2070    0.0000 C   0  0  0  0  0  0  0  0  0  0  0  0
   -0.8580    0.3820    0.0000 C   0  0  0  0  0  0  0  0  0  0  0  0
   -0.1435   -0.0305    0.0000 C   0  0  0  0  0  0  0  0  0  0  0  0
    0.1921    0.7232    0.0000 O   0  0  0  0  0  0  0  0  0  0  0  0
   -0.6284   -0.6979    0.0000 C   0  0  0  0  0  0  0  0  0  0  0  0
   -1.4534   -0.6979    0.0000 O   0  0  0  0  0  0  0  0  0  0  0  0
   -0.1435   -1.3654    0.0000 N   0  0  0  0  0  0  0  0  0  0  0  0
    0.6411   -1.1104    0.0000 C   0  0  0  0  0  0  0  0  0  0  0  0
    0.6411   -0.2854    0.0000 C   0  0  0  0  0  0  0  0  0  0  0  0
    1.3556    0.1271    0.0000 C   0  0  0  0  0  0  0  0  0  0  0  0
    2.0701   -0.2854    0.0000 C   0  0  0  0  0  0  0  0  0  0  0  0
    2.7845    0.1271    0.0000 F   0  0  0  0  0  0  0  0  0  0  0  0
    2.0701   -1.1104    0.0000 C   0  0  0  0  0  0  0  0  0  0  0  0
    1.3556   -1.5229    0.0000 C   0  0  0  0  0  0  0  0  0  0  0  0
   -1.6830    1.2070    0.0000 C   0  0  0  0  0  0  0  0  0  0  0  0
   -2.0955    1.9215    0.0000 C   0  0  0  0  0  0  0  0  0  0  0  0
   -2.0955    0.4925    0.0000 C   0  0  0  0  0  0  0  0  0  0  0  0
   -2.9205    0.4925    0.0000 O   0  0  0  0  0  0  0  0  0  0  0  0
   -1.6830   -0.2219    0.0000 C   0  0  0  0  0  0  0  0  0  0  0  0
   -0.8580   -0.2219    0.0000 C   0  0  0  0  0  0  0  0  0  0  0  0
   -2.0955   -0.9364    0.0000 C   0  0  0  0  0  0  0  0  0  0  0  0
   -2.9205   -0.9364    0.0000 O   0  0  0  0  0  0  0  0  0  0  0  0
   -1.6830   -1.6509    0.0000 C   0  0  0  0  0  0  0  0  0  0  0  0
   -0.8625   -1.7371    0.0000 C   0  0  0  0  0  0  0  0  0  0  0  0
   -0.6910   -2.5441    0.0000 N   0  0  0  0  0  0  0  0  0  0  0  0
    0.0627   -2.8797    0.0000 C   0  0  0  0  0  0  0  0  0  0  0  0
   -1.4054   -2.9566    0.0000 N   0  0  0  0  0  0  0  0  0  0  0  0
   -2.0185   -2.4046    0.0000 C   0  0  0  0  0  0  0  0  0  0  0  0
   -0.8580    2.0320    0.0000 C   0  0  0  0  0  0  0  0  0  0  0  0
   -1.5724    2.4445    0.0000 C   0  0  0  0  0  0  0  0  0  0  0  0
   -1.5724    3.2695    0.0000 C   0  0  0  0  0  0  0  0  0  0  0  0
   -0.8580    3.6820    0.0000 C   0  0  0  0  0  0  0  0  0  0  0  0
   -0.8580    4.5070    0.0000 C   0  0  0  0  0  0  0  0  0  0  0  0
   -0.1435    3.2695    0.0000 C   0  0  0  0  0  0  0  0  0  0  0  0
   -0.1435    2.4445    0.0000 C   0  0  0  0  0  0  0  0  0  0  0  0
    0.5710    2.0320    0.0000 C   0  0  0  0  0  0  0  0  0  0  0  0
  1  2  1  0  0  0  0
  2  3  1  0  0  0  0
  3  4  1  0  0  0  0
  4  5  1  0  0  0  0
  5  6  1  0  0  0  0
  5  7  1  0  0  0  0
  7  8  2  0  0  0  0
  7  9  1  0  0  0  0
  9 10  1  0  0  0  0
 10 11  2  0  0  0  0
  5 11  1  0  0  0  0
 11 12  1  0  0  0  0
 12 13  2  0  0  0  0
 13 14  1  0  0  0  0
 13 15  1  0  0  0  0
 15 16  2  0  0  0  0
 10 16  1  0  0  0  0
  3 17  1  0  0  0  0
 17 18  1  0  0  0  0
 17 19  1  0  0  0  0
 19 20  2  0  0  0  0
 19 21  1  0  0  0  0
 21 22  1  0  0  0  0
 21 23  1  0  0  0  0
 23 24  2  0  0  0  0
 23 25  1  0  0  0  0
 25 26  2  0  0  0  0
 26 27  1  0  0  0  0
 27 28  1  0  0  0  0
 27 29  1  0  0  0  0
 29 30  2  0  0  0  0
 25 30  1  0  0  0  0
  3 31  1  0  0  0  0
 31 32  2  0  0  0  0
 32 33  1  0  0  0  0
 33 34  2  0  0  0  0
 34 35  1  0  0  0  0
 34 36  1  0  0  0  0
 36 37  2  0  0  0  0
 31 37  1  0  0  0  0
 37 38  1  0  0  0  0
M  END
> <ID>
CPD_1887

$$$$
CPD_1892
  Mrv1822 09091914012D          

 23 27  0  0  0  0            999 V2000
    0.7572    2.8448    0.0000 O   0  0  0  0  0  0  0  0  0  0  0  0
    1.5540    3.0584    0.0000 C   0  0  0  0  0  0  0  0  0  0  0  0
    2.3509    3.2719    0.0000 C   0  0  0  0  0  0  0  0  0  0  0  0
    2.5645    2.4750    0.0000 N   0  0  0  0  0  0  0  0  0  0  0  0
    3.2789    2.0625    0.0000 C   0  0  0  0  0  0  0  0  0  0  0  0
    3.2789    1.2375    0.0000 C   0  0  0  0  0  0  0  0  0  0  0  0
    3.9934    0.8250    0.0000 C   0  0  0  0  0  0  0  0  0  0  0  0
    3.9934    0.0000    0.0000 C   0  0  0  0  0  0  0  0  0  0  0  0
    3.2789   -0.4125    0.0000 C   0  0  0  0  0  0  0  0  0  0  0  0
    2.5645    0.0000    0.0000 N   0  0  0  0  0  0  0  0  0  0  0  0
    1.7798   -0.2549    0.0000 C   0  0  0  0  0  0  0  0  0  0  0  0
    1.2949    0.4125    0.0000 N   0  0  0  0  0  0  0  0  0  0  0  0
    1.7798    1.0799    0.0000 N   0  0  0  0  0  0  0  0  0  0  0  0
    2.5645    0.8250    0.0000 C   0  0  0  0  0  0  0  0  0  0  0  0
    1.5249   -1.0396    0.0000 C   0  0  0  0  0  0  0  0  0  0  0  0
    2.0098   -1.7070    0.0000 C   0  0  0  0  0  0  0  0  0  0  0  0
    1.5249   -2.3744    0.0000 C   0  0  0  0  0  0  0  0  0  0  0  0
    0.7403   -2.1195    0.0000 C   0  0  0  0  0  0  0  0  0  0  0  0
    0.7403   -1.2945    0.0000 C   0  0  0  0  0  0  0  0  0  0  0  0
    1.7676    2.2615    0.0000 C   0  0  0  0  0  0  0  0  0  0  0  0
    1.3405    3.8553    0.0000 C   0  0  0  0  0  0  0  0  0  0  0  0
    0.7572    4.4386    0.0000 C   0  0  0  0  0  0  0  0  0  0  0  0
    1.5540    4.6521    0.0000 C   0  0  0  0  0  0  0  0  0  0  0  0
  1  2  1  0  0  0  0
  2  3  1  0  0  0  0
  3  4  1  0  0  0  0
  4  5  1  0  0  0  0
  5  6  1  0  0  0  0
  6  7  2  0  0  0  0
  7  8  1  0  0  0  0
  8  9  2  0  0  0  0
  9 10  1  0  0  0  0
 10 11  1  0  0  0  0
 11 12  2  0  0  0  0
 12 13  1  0  0  0  0
 13 14  2  0  0  0  0
  6 14  1  0  0  0  0
 10 14  1  0  0  0  0
 11 15  1  0  0  0  0
 15 16  1  0  0  0  0
 16 17  1  0  0  0  0
 17 18  1  0  0  0  0
 18 19  1  0  0  0  0
 15 19  1  0  0  0  0
  4 20  1  0  0  0  0
  2 20  1  0  0  0  0
  2 21  1  0  0  0  0
 21 22  1  0  0  0  0
 22 23  1  0  0  0  0
 21 23  1  0  0  0  0
M  END
> <ID>
CPD_1892

$$$$
CPD_1897
  Mrv1822 09091914012D          

 19 21  0  0  0  0            999 V2000
    0.1595    5.9574    0.0000 C   0  0  0  0  0  0  0  0  0  0  0  0
    0.9564    6.1709    0.0000 N   0  0  0  0  0  0  0  0  0  0  0  0
    1.1699    6.9678    0.0000 C   0  0  0  0  0  0  0  0  0  0  0  0
    0.5866    7.5512    0.0000 O   0  0  0  0  0  0  0  0  0  0  0  0
    1.9668    7.1813    0.0000 N   0  0  0  0  0  0  0  0  0  0  0  0
    2.5502    6.5980    0.0000 C   0  0  0  0  0  0  0  0  0  0  0  0
    2.3367    5.8011    0.0000 C   0  0  0  0  0  0  0  0  0  0  0  0
    2.9200    5.2177    0.0000 C   0  0  0  0  0  0  0  0  0  0  0  0
    3.7169    5.4312    0.0000 C   0  0  0  0  0  0  0  0  0  0  0  0
    4.3003    4.8479    0.0000 N   0  0  0  0  0  0  0  0  0  0  0  0
    5.1253    4.8479    0.0000 C   0  0  0  0  0  0  0  0  0  0  0  0
    5.1253    4.0229    0.0000 C   0  0  0  0  0  0  0  0  0  0  0  0
    5.9503    4.0229    0.0000 O   0  0  0  0  0  0  0  0  0  0  0  0
    4.3003    4.0229    0.0000 C   0  0  0  0  0  0  0  0  0  0  0  0
    5.1253    3.1979    0.0000 C   0  0  0  0  0  0  0  0  0  0  0  0
    5.5378    2.4834    0.0000 C   0  0  0  0  0  0  0  0  0  0  0  0
    4.7128    2.4834    0.0000 C   0  0  0  0  0  0  0  0  0  0  0  0
    1.5398    5.5875    0.0000 C   0  0  0  0  0  0  0  0  0  0  0  0
    1.3262    4.7907    0.0000 O   0  0  0  0  0  0  0  0  0  0  0  0
  1  2  1  0  0  0  0
  2  3  1  0  0  0  0
  3  4  1  0  0  0  0
  3  5  2  0  0  0  0
  5  6  1  0  0  0  0
  6  7  2  0  0  0  0
  7  8  1  0  0  0  0
  8  9  1  0  0  0  0
  9 10  1  0  0  0  0
 10 11  1  0  0  0  0
 11 12  1  0  0  0  0
 12 13  1  0  0  0  0
 12 14  1  0  0  0  0
 10 14  1  0  0  0  0
 12 15  1  0  0  0  0
 15 16  1  0  0  0  0
 16 17  1  0  0  0  0
 15 17  1  0  0  0  0
  7 18  1  0  0  0  0
  2 18  1  0  0  0  0
 18 19  2  0  0  0  0
M  END
> <ID>
CPD_1897

$$$$
CPD_1902
  Mrv1822 09091914012D          

 21 23  0  0  0  0            999 V2000
    0.3144   -4.9016    0.0000 C   0  0  0  0  0  0  0  0  0  0  0  0
    1.0288   -4.4891    0.0000 N   0  0  0  0  0  0  0  0  0  0  0  0
    1.7433   -4.9016    0.0000 C   0  0  0  0  0  0  0  0  0  0  0  0
    1.7433   -5.7266    0.0000 O   0  0  0  0  0  0  0  0  0  0  0  0
    2.4578   -4.4891    0.0000 C   0  0  0  0  0  0  0  0  0  0  0  0
    2.4578   -3.6641    0.0000 C   0  0  0  0  0  0  0  0  0  0  0  0
    3.1722   -4.9016    0.0000 N   0  0  0  0  0  0  0  0  0  0  0  0
    3.8867   -4.4891    0.0000 C   0  0  0  0  0  0  0  0  0  0  0  0
    4.6012   -4.9016    0.0000 C   0  0  0  0  0  0  0  0  0  0  0  0
    5.3157   -4.4891    0.0000 C   0  0  0  0  0  0  0  0  0  0  0  0
    5.3157   -3.6641    0.0000 C   0  0  0  0  0  0  0  0  0  0  0  0
    4.6012   -3.2516    0.0000 C   0  0  0  0  0  0  0  0  0  0  0  0
    3.8867   -3.6641    0.0000 C   0  0  0  0  0  0  0  0  0  0  0  0
    6.1003   -3.4092    0.0000 C   0  0  0  0  0  0  0  0  0  0  0  0
    6.4358   -2.6555    0.0000 C   0  0  0  0  0  0  0  0  0  0  0  0
    7.2563   -2.5693    0.0000 C   0  0  0  0  0  0  0  0  0  0  0  0
    7.7412   -3.2367    0.0000 C   0  0  0  0  0  0  0  0  0  0  0  0
    8.5617   -3.1505    0.0000 N   0  0  0  0  0  0  0  0  0  0  0  0
    7.4057   -3.9904    0.0000 C   0  0  0  0  0  0  0  0  0  0  0  0
    6.5852   -4.0766    0.0000 C   0  0  0  0  0  0  0  0  0  0  0  0
    6.1003   -4.7440    0.0000 C   0  0  0  0  0  0  0  0  0  0  0  0
  1  2  1  0  0  0  0
  2  3  1  0  0  0  0
  3  4  2  0  0  0  0
  3  5  1  0  0  0  0
  5  6  1  0  0  0  0
  5  7  1  0  0  0  0
  7  8  1  0  0  0  0
  8  9  2  0  0  0  0
  9 10  1  0  0  0  0
 10 11  2  0  0  0  0
 11 12  1  0  0  0  0
 12 13  2  0  0  0  0
  8 13  1  0  0  0  0
 11 14  1  0  0  0  0
 14 15  2  0  0  0  0
 15 16  1  0  0  0  0
 16 17  2  0  0  0  0
 17 18  1  0  0  0  0
 17 19  1  0  0  0  0
 19 20  2  0  0  0  0
 14 20  1  0  0  0  0
 20 21  1  0  0  0  0
 10 21  1  0  0  0  0
M  END
> <ID>
CPD_1902

$$$$
CPD_1907
  Mrv1822 09091914012D          

 31 34  0  0  0  0            999 V2000
    0.8212    4.4759    0.0000 C   0  0  0  0  0  0  0  0  0  0  0  0
    0.8212    3.6509    0.0000 O   0  0  0  0  0  0  0  0  0  0  0  0
    1.5356    3.2384    0.0000 C   0  0  0  0  0  0  0  0  0  0  0  0
    2.2501    3.6509    0.0000 O   0  0  0  0  0  0  0  0  0  0  0  0
    1.5356    2.4134    0.0000 C   0  0  0  0  0  0  0  0  0  0  0  0
    2.2501    2.0009    0.0000 C   0  0  0  0  0  0  0  0  0  0  0  0
    2.9646    2.4134    0.0000 O   0  0  0  0  0  0  0  0  0  0  0  0
    3.6791    2.0009    0.0000 C   0  0  0  0  0  0  0  0  0  0  0  0
    4.3935    2.4134    0.0000 C   0  0  0  0  0  0  0  0  0  0  0  0
    5.1080    2.0009    0.0000 C   0  0  0  0  0  0  0  0  0  0  0  0
    5.1080    1.1759    0.0000 C   0  0  0  0  0  0  0  0  0  0  0  0
    4.3935    0.7634    0.0000 C   0  0  0  0  0  0  0  0  0  0  0  0
    3.6791    1.1759    0.0000 C   0  0  0  0  0  0  0  0  0  0  0  0
    2.2501    1.1759    0.0000 C   0  0  0  0  0  0  0  0  0  0  0  0
    1.5356    0.7634    0.0000 C   0  0  0  0  0  0  0  0  0  0  0  0
    0.8212    1.1759    0.0000 C   0  0  0  0  0  0  0  0  0  0  0  0
    0.1067    0.7634    0.0000 N   0  0  0  0  0  0  0  0  0  0  0  0
   -0.6078    1.1759    0.0000 C   0  0  0  0  0  0  0  0  0  0  0  0
   -1.3222    0.7634    0.0000 C   0  0  0  0  0  0  0  0  0  0  0  0
   -2.0367    1.1759    0.0000 C   0  0  0  0  0  0  0  0  0  0  0  0
   -2.0367    2.0009    0.0000 C   0  0  0  0  0  0  0  0  0  0  0  0
   -1.3222    2.4134    0.0000 C   0  0  0  0  0  0  0  0  0  0  0  0
   -0.6078    2.0009    0.0000 C   0  0  0  0  0  0  0  0  0  0  0  0
   -1.3222   -0.0616    0.0000 N   0  0  0  0  0  0  0  0  0  0  0  0
   -0.6548   -0.5465    0.0000 N   0  0  0  0  0  0  0  0  0  0  0  0
   -0.9097   -1.3312    0.0000 C   0  0  0  0  0  0  0  0  0  0  0  0
   -0.4248   -1.9986    0.0000 C   0  0  0  0  0  0  0  0  0  0  0  0
   -1.7347   -1.3312    0.0000 C   0  0  0  0  0  0  0  0  0  0  0  0
   -1.9897   -0.5465    0.0000 C   0  0  0  0  0  0  0  0  0  0  0  0
   -2.7743   -0.2916    0.0000 O   0  0  0  0  0  0  0  0  0  0  0  0
    0.8212    2.0009    0.0000 C   0  0  0  0  0  0  0  0  0  0  0  0
  1  2  1  0  0  0  0
  2  3  1  0  0  0  0
  3  4  2  0  0  0  0
  3  5  1  0  0  0  0
  5  6  2  0  0  0  0
  6  7  1  0  0  0  0
  7  8  1  0  0  0  0
  8  9  2  0  0  0  0
  9 10  1  0  0  0  0
 10 11  2  0  0  0  0
 11 12  1  0  0  0  0
 12 13  2  0  0  0  0
  8 13  1  0  0  0  0
  6 14  1  0  0  0  0
 14 15  2  0  0  0  0
 15 16  1  0  0  0  0
 16 17  1  0  0  0  0
 17 18  1  0  0  0  0
 18 19  2  0  0  0  0
 19 20  1  0  0  0  0
 20 21  2  0  0  0  0
 21 22  1  0  0  0  0
 22 23  2  0  0  0  0
 18 23  1  0  0  0  0
 19 24  1  0  0  0  0
 24 25  1  0  0  0  0
 25 26  1  0  0  0  0
 26 27  1  0  0  0  0
 26 28  2  0  0  0  0
 28 29  1  0  0  0  0
 24 29  1  0  0  0  0
 29 30  2  0  0  0  0
 16 31  2  0  0  0  0
  5 31  1  0  0  0  0
M  END
> <ID>
CPD_1907

$$$$
CPD_1912
  Mrv1822 09091914012D          

 29 31  0  0  0  0            999 V2000
    5.0013   -0.4125    0.0000 C   0  0  0  0  0  0  0  0  0  0  0  0
    4.2868   -0.8250    0.0000 C   0  0  0  0  0  0  0  0  0  0  0  0
    3.8743   -0.1105    0.0000 C   0  0  0  0  0  0  0  0  0  0  0  0
    4.6993   -1.5395    0.0000 C   0  0  0  0  0  0  0  0  0  0  0  0
    3.5724   -1.2375    0.0000 N   0  0  0  0  0  0  0  0  0  0  0  0
    3.5724   -2.0625    0.0000 C   0  0  0  0  0  0  0  0  0  0  0  0
    4.2868   -2.4750    0.0000 C   0  0  0  0  0  0  0  0  0  0  0  0
    5.0013   -2.0625    0.0000 N   0  0  0  0  0  0  0  0  0  0  0  0
    4.2868   -3.3000    0.0000 C   0  0  0  0  0  0  0  0  0  0  0  0
    3.5724   -3.7125    0.0000 C   0  0  0  0  0  0  0  0  0  0  0  0
    2.8579   -3.3000    0.0000 C   0  0  0  0  0  0  0  0  0  0  0  0
    2.1434   -3.7125    0.0000 N   0  0  0  0  0  0  0  0  0  0  0  0
    2.1434   -4.5375    0.0000 C   0  0  0  0  0  0  0  0  0  0  0  0
    2.8579   -4.9500    0.0000 N   0  0  0  0  0  0  0  0  0  0  0  0
    2.8579   -5.7750    0.0000 C   0  0  0  0  0  0  0  0  0  0  0  0
    2.1434   -6.1875    0.0000 C   0  0  0  0  0  0  0  0  0  0  0  0
    2.1434   -7.0125    0.0000 Cl  0  0  0  0  0  0  0  0  0  0  0  0
    1.4289   -5.7750    0.0000 C   0  0  0  0  0  0  0  0  0  0  0  0
    1.4289   -4.9500    0.0000 C   0  0  0  0  0  0  0  0  0  0  0  0
    0.7145   -4.5375    0.0000 S   0  0  0  0  0  0  0  0  0  0  0  0
    1.1270   -3.8230    0.0000 O   0  0  0  0  0  0  0  0  0  0  0  0
    0.3020   -5.2520    0.0000 O   0  0  0  0  0  0  0  0  0  0  0  0
    0.0000   -4.1250    0.0000 N   0  0  0  0  0  0  0  0  0  0  0  0
   -0.7145   -4.5375    0.0000 C   0  0  0  0  0  0  0  0  0  0  0  0
   -1.4289   -4.1250    0.0000 C   0  0  0  0  0  0  0  0  0  0  0  0
   -1.4289   -3.3000    0.0000 O   0  0  0  0  0  0  0  0  0  0  0  0
   -0.7145   -2.8875    0.0000 C   0  0  0  0  0  0  0  0  0  0  0  0
    0.0000   -3.3000    0.0000 C   0  0  0  0  0  0  0  0  0  0  0  0
    2.8579   -2.4750    0.0000 C   0  0  0  0  0  0  0  0  0  0  0  0
  1  2  1  0  0  0  0
  2  3  1  0  0  0  0
  2  4  1  0  0  0  0
  2  5  1  0  0  0  0
  5  6  1  0  0  0  0
  6  7  2  0  0  0  0
  7  8  1  0  0  0  0
  7  9  1  0  0  0  0
  9 10  2  0  0  0  0
 10 11  1  0  0  0  0
 11 12  1  0  0  0  0
 12 13  1  0  0  0  0
 13 14  2  0  0  0  0
 14 15  1  0  0  0  0
 15 16  2  0  0  0  0
 16 17  1  0  0  0  0
 16 18  1  0  0  0  0
 18 19  2  0  0  0  0
 13 19  1  0  0  0  0
 19 20  1  0  0  0  0
 20 21  2  0  0  0  0
 20 22  2  0  0  0  0
 20 23  1  0  0  0  0
 23 24  1  0  0  0  0
 24 25  1  0  0  0  0
 25 26  1  0  0  0  0
 26 27  1  0  0  0  0
 27 28  1  0  0  0  0
 23 28  1  0  0  0  0
 11 29  2  0  0  0  0
  6 29  1  0  0  0  0
M  END
> <ID>
CPD_1912

$$$$
CPD_1917
  Mrv1822 09091914012D          

 25 27  0  0  0  0            999 V2000
    3.5724   -1.2375    0.0000 C   0  0  0  0  0  0  0  0  0  0  0  0
    3.5724   -2.0625    0.0000 C   0  0  0  0  0  0  0  0  0  0  0  0
    4.2868   -2.4750    0.0000 C   0  0  0  0  0  0  0  0  0  0  0  0
    4.2868   -3.3000    0.0000 C   0  0  0  0  0  0  0  0  0  0  0  0
    5.0013   -3.7125    0.0000 N   0  0  0  0  0  0  0  0  0  0  0  0
    5.7158   -3.3000    0.0000 C   0  0  0  0  0  0  0  0  0  0  0  0
    5.7158   -2.4750    0.0000 N   0  0  0  0  0  0  0  0  0  0  0  0
    6.4302   -2.0625    0.0000 C   0  0  0  0  0  0  0  0  0  0  0  0
    7.1447   -2.4750    0.0000 C   0  0  0  0  0  0  0  0  0  0  0  0
    7.8592   -2.0625    0.0000 Cl  0  0  0  0  0  0  0  0  0  0  0  0
    7.1447   -3.3000    0.0000 C   0  0  0  0  0  0  0  0  0  0  0  0
    6.4302   -3.7125    0.0000 C   0  0  0  0  0  0  0  0  0  0  0  0
    6.4302   -4.5375    0.0000 S   0  0  0  0  0  0  0  0  0  0  0  0
    5.6052   -4.5375    0.0000 O   0  0  0  0  0  0  0  0  0  0  0  0
    7.2552   -4.5375    0.0000 O   0  0  0  0  0  0  0  0  0  0  0  0
    6.4302   -5.3625    0.0000 N   0  0  0  0  0  0  0  0  0  0  0  0
    7.1447   -5.7750    0.0000 C   0  0  0  0  0  0  0  0  0  0  0  0
    7.1447   -6.6000    0.0000 C   0  0  0  0  0  0  0  0  0  0  0  0
    6.4302   -7.0125    0.0000 O   0  0  0  0  0  0  0  0  0  0  0  0
    5.7158   -6.6000    0.0000 C   0  0  0  0  0  0  0  0  0  0  0  0
    5.7158   -5.7750    0.0000 C   0  0  0  0  0  0  0  0  0  0  0  0
    3.5724   -3.7125    0.0000 C   0  0  0  0  0  0  0  0  0  0  0  0
    2.8579   -3.3000    0.0000 C   0  0  0  0  0  0  0  0  0  0  0  0
    2.1434   -3.7125    0.0000 Cl  0  0  0  0  0  0  0  0  0  0  0  0
    2.8579   -2.4750    0.0000 C   0  0  0  0  0  0  0  0  0  0  0  0
  1  2  1  0  0  0  0
  2  3  2  0  0  0  0
  3  4  1  0  0  0  0
  4  5  1  0  0  0  0
  5  6  1  0  0  0  0
  6  7  2  0  0  0  0
  7  8  1  0  0  0  0
  8  9  2  0  0  0  0
  9 10  1  0  0  0  0
  9 11  1  0  0  0  0
 11 12  2  0  0  0  0
  6 12  1  0  0  0  0
 12 13  1  0  0  0  0
 13 14  2  0  0  0  0
 13 15  2  0  0  0  0
 13 16  1  0  0  0  0
 16 17  1  0  0  0  0
 17 18  1  0  0  0  0
 18 19  1  0  0  0  0
 19 20  1  0  0  0  0
 20 21  1  0  0  0  0
 16 21  1  0  0  0  0
  4 22  2  0  0  0  0
 22 23  1  0  0  0  0
 23 24  1  0  0  0  0
 23 25  2  0  0  0  0
  2 25  1  0  0  0  0
M  END
> <ID>
CPD_1917

$$$$
CPD_1922
  Mrv1822 09091914012D          

 32 33  0  0  0  0            999 V2000
   -1.9520   -3.6020    0.0000 C   0  0  0  0  0  0  0  0  0  0  0  0
   -1.1270   -3.6020    0.0000 C   0  0  0  0  0  0  0  0  0  0  0  0
   -0.7145   -2.8875    0.0000 O   0  0  0  0  0  0  0  0  0  0  0  0
    0.1105   -2.8875    0.0000 C   0  0  0  0  0  0  0  0  0  0  0  0
    0.5230   -3.6020    0.0000 O   0  0  0  0  0  0  0  0  0  0  0  0
    0.5230   -2.1730    0.0000 C   0  0  0  0  0  0  0  0  0  0  0  0
    1.3480   -2.1730    0.0000 C   0  0  0  0  0  0  0  0  0  0  0  0
    1.7605   -2.8875    0.0000 N   0  0  0  0  0  0  0  0  0  0  0  0
    2.5855   -2.8875    0.0000 C   0  0  0  0  0  0  0  0  0  0  0  0
    2.9980   -3.6020    0.0000 C   0  0  0  0  0  0  0  0  0  0  0  0
    3.8230   -3.6020    0.0000 C   0  0  0  0  0  0  0  0  0  0  0  0
    4.2355   -4.3164    0.0000 C   0  0  0  0  0  0  0  0  0  0  0  0
    5.0605   -4.3164    0.0000 C   0  0  0  0  0  0  0  0  0  0  0  0
    5.4730   -5.0309    0.0000 N   0  0  0  0  0  0  0  0  0  0  0  0
    6.2980   -5.0309    0.0000 C   0  0  0  0  0  0  0  0  0  0  0  0
    6.7105   -4.3164    0.0000 O   0  0  0  0  0  0  0  0  0  0  0  0
    6.7105   -5.7454    0.0000 O   0  0  0  0  0  0  0  0  0  0  0  0
    7.5355   -5.7454    0.0000 C   0  0  0  0  0  0  0  0  0  0  0  0
    8.3605   -5.7454    0.0000 C   0  0  0  0  0  0  0  0  0  0  0  0
    7.5355   -6.5704    0.0000 C   0  0  0  0  0  0  0  0  0  0  0  0
    7.5355   -4.9204    0.0000 C   0  0  0  0  0  0  0  0  0  0  0  0
    4.2355   -2.8875    0.0000 C   0  0  0  0  0  0  0  0  0  0  0  0
    3.8230   -2.1730    0.0000 C   0  0  0  0  0  0  0  0  0  0  0  0
    2.9980   -2.1730    0.0000 C   0  0  0  0  0  0  0  0  0  0  0  0
    1.7605   -1.4586    0.0000 C   0  0  0  0  0  0  0  0  0  0  0  0
    1.3480   -0.7441    0.0000 C   0  0  0  0  0  0  0  0  0  0  0  0
    1.7605   -0.0296    0.0000 C   0  0  0  0  0  0  0  0  0  0  0  0
    2.5855   -0.0296    0.0000 C   0  0  0  0  0  0  0  0  0  0  0  0
    2.9980    0.6849    0.0000 Br  0  0  0  0  0  0  0  0  0  0  0  0
    2.9980   -0.7441    0.0000 C   0  0  0  0  0  0  0  0  0  0  0  0
    2.5855   -1.4586    0.0000 C   0  0  0  0  0  0  0  0  0  0  0  0
    3.3392   -1.7941    0.0000 C   0  0  0  0  0  0  0  0  0  0  0  0
  1  2  1  0  0  0  0
  2  3  1  0  0  0  0
  3  4  1  0  0  0  0
  4  5  2  0  0  0  0
  4  6  1  0  0  0  0
  6  7  1  0  0  0  0
  7  8  1  0  0  0  0
  8  9  1  0  0  0  0
  9 10  2  0  0  0  0
 10 11  1  0  0  0  0
 11 12  1  0  0  0  0
 12 13  1  0  0  0  0
 13 14  1  0  0  0  0
 14 15  1  0  0  0  0
 15 16  2  0  0  0  0
 15 17  1  0  0  0  0
 17 18  1  0  0  0  0
 18 19  1  0  0  0  0
 18 20  1  0  0  0  0
 18 21  1  0  0  0  0
 11 22  2  0  0  0  0
 22 23  1  0  0  0  0
 23 24  2  0  0  0  0
  9 24  1  0  0  0  0
  7 25  1  0  0  0  0
 25 26  2  0  0  0  0
 26 27  1  0  0  0  0
 27 28  2  0  0  0  0
 28 29  1  0  0  0  0
 28 30  1  0  0  0  0
 30 31  2  0  0  0  0
 25 31  1  0  0  0  0
 31 32  1  0  0  0  0
M  END
> <ID>
CPD_1922

$$$$
CPD_1927
  Mrv1822 09091914012D          

 27 28  0  0  0  0            999 V2000
   -1.9520   -3.6020    0.0000 C   0  0  0  0  0  0  0  0  0  0  0  0
   -1.1270   -3.6020    0.0000 C   0  0  0  0  0  0  0  0  0  0  0  0
   -0.7145   -2.8875    0.0000 O   0  0  0  0  0  0  0  0  0  0  0  0
    0.1105   -2.8875    0.0000 C   0  0  0  0  0  0  0  0  0  0  0  0
    0.5230   -3.6020    0.0000 O   0  0  0  0  0  0  0  0  0  0  0  0
    0.5230   -2.1730    0.0000 C   0  0  0  0  0  0  0  0  0  0  0  0
    1.3480   -2.1730    0.0000 C   0  0  0  0  0  0  0  0  0  0  0  0
    1.7605   -2.8875    0.0000 N   0  0  0  0  0  0  0  0  0  0  0  0
    2.5855   -2.8875    0.0000 C   0  0  0  0  0  0  0  0  0  0  0  0
    2.9980   -3.6020    0.0000 C   0  0  0  0  0  0  0  0  0  0  0  0
    3.8230   -3.6020    0.0000 C   0  0  0  0  0  0  0  0  0  0  0  0
    4.2355   -4.3164    0.0000 C   0  0  0  0  0  0  0  0  0  0  0  0
    5.0605   -4.3164    0.0000 O   0  0  0  0  0  0  0  0  0  0  0  0
    4.2355   -2.8875    0.0000 C   0  0  0  0  0  0  0  0  0  0  0  0
    3.8230   -2.1730    0.0000 C   0  0  0  0  0  0  0  0  0  0  0  0
    2.9980   -2.1730    0.0000 C   0  0  0  0  0  0  0  0  0  0  0  0
    4.2355   -1.4586    0.0000 C   0  0  0  0  0  0  0  0  0  0  0  0
    5.0605   -1.4586    0.0000 O   0  0  0  0  0  0  0  0  0  0  0  0
    3.8230   -0.7441    0.0000 O   0  0  0  0  0  0  0  0  0  0  0  0
    1.7605   -1.4586    0.0000 C   0  0  0  0  0  0  0  0  0  0  0  0
    1.3480   -0.7441    0.0000 C   0  0  0  0  0  0  0  0  0  0  0  0
    1.7605   -0.0296    0.0000 C   0  0  0  0  0  0  0  0  0  0  0  0
    2.5855   -0.0296    0.0000 C   0  0  0  0  0  0  0  0  0  0  0  0
    2.9980    0.6849    0.0000 Br  0  0  0  0  0  0  0  0  0  0  0  0
    2.9980   -0.7441    0.0000 C   0  0  0  0  0  0  0  0  0  0  0  0
    2.5855   -1.4586    0.0000 C   0  0  0  0  0  0  0  0  0  0  0  0
    3.3392   -1.7941    0.0000 C   0  0  0  0  0  0  0  0  0  0  0  0
  1  2  1  0  0  0  0
  2  3  1  0  0  0  0
  3  4  1  0  0  0  0
  4  5  2  0  0  0  0
  4  6  1  0  0  0  0
  6  7  1  0  0  0  0
  7  8  1  0  0  0  0
  8  9  1  0  0  0  0
  9 10  2  0  0  0  0
 10 11  1  0  0  0  0
 11 12  1  0  0  0  0
 12 13  1  0  0  0  0
 11 14  2  0  0  0  0
 14 15  1  0  0  0  0
 15 16  2  0  0  0  0
  9 16  1  0  0  0  0
 15 17  1  0  0  0  0
 17 18  1  0  0  0  0
 17 19  2  0  0  0  0
  7 20  1  0  0  0  0
 20 21  2  0  0  0  0
 21 22  1  0  0  0  0
 22 23  2  0  0  0  0
 23 24  1  0  0  0  0
 23 25  1  0  0  0  0
 25 26  2  0  0  0  0
 20 26  1  0  0  0  0
 26 27  1  0  0  0  0
M  END
> <ID>
CPD_1927

$$$$
CPD_1932
  Mrv1822 09091914012D          

 31 34  0  0  0  0            999 V2000
   -1.8219   -5.1219    0.0000 N   0  0  0  0  0  0  0  0  0  0  0  0
   -1.6083   -4.3250    0.0000 C   0  0  0  0  0  0  0  0  0  0  0  0
   -0.8114   -4.1114    0.0000 C   0  0  0  0  0  0  0  0  0  0  0  0
   -0.2281   -4.6948    0.0000 Cl  0  0  0  0  0  0  0  0  0  0  0  0
   -0.5979   -3.3146    0.0000 C   0  0  0  0  0  0  0  0  0  0  0  0
   -1.1813   -2.7312    0.0000 C   0  0  0  0  0  0  0  0  0  0  0  0
   -0.9678   -1.9343    0.0000 N   0  0  0  0  0  0  0  0  0  0  0  0
   -0.1709   -1.7208    0.0000 C   0  0  0  0  0  0  0  0  0  0  0  0
    0.4125   -2.3041    0.0000 C   0  0  0  0  0  0  0  0  0  0  0  0
    0.9959   -2.8875    0.0000 C   0  0  0  0  0  0  0  0  0  0  0  0
    0.4125   -3.4709    0.0000 O   0  0  0  0  0  0  0  0  0  0  0  0
   -0.1709   -2.8875    0.0000 C   0  0  0  0  0  0  0  0  0  0  0  0
    0.9959   -1.7208    0.0000 N   0  0  0  0  0  0  0  0  0  0  0  0
    0.7823   -0.9239    0.0000 C   0  0  0  0  0  0  0  0  0  0  0  0
   -0.0146   -0.7104    0.0000 C   0  0  0  0  0  0  0  0  0  0  0  0
   -0.5979   -1.2937    0.0000 C   0  0  0  0  0  0  0  0  0  0  0  0
   -1.3948   -1.0802    0.0000 C   0  0  0  0  0  0  0  0  0  0  0  0
   -1.6083   -0.2833    0.0000 C   0  0  0  0  0  0  0  0  0  0  0  0
   -1.0250    0.3001    0.0000 C   0  0  0  0  0  0  0  0  0  0  0  0
   -0.2281    0.0865    0.0000 C   0  0  0  0  0  0  0  0  0  0  0  0
    1.7928   -1.9343    0.0000 C   0  0  0  0  0  0  0  0  0  0  0  0
    2.3761   -1.3509    0.0000 C   0  0  0  0  0  0  0  0  0  0  0  0
    2.1626   -0.5540    0.0000 C   0  0  0  0  0  0  0  0  0  0  0  0
    2.7460    0.0293    0.0000 C   0  0  0  0  0  0  0  0  0  0  0  0
    3.5428   -0.1842    0.0000 C   0  0  0  0  0  0  0  0  0  0  0  0
    3.7564   -0.9811    0.0000 C   0  0  0  0  0  0  0  0  0  0  0  0
    3.1730   -1.5645    0.0000 C   0  0  0  0  0  0  0  0  0  0  0  0
   -1.9782   -2.9447    0.0000 C   0  0  0  0  0  0  0  0  0  0  0  0
   -2.1917   -3.7416    0.0000 C   0  0  0  0  0  0  0  0  0  0  0  0
   -2.5615   -2.3614    0.0000 C   0  0  0  0  0  0  0  0  0  0  0  0
   -3.1449   -1.7780    0.0000 N   0  0  0  0  0  0  0  0  0  0  0  0
  1  2  1  0  0  0  0
  2  3  2  0  0  0  0
  3  4  1  0  0  0  0
  3  5  1  0  0  0  0
  5  6  2  0  0  0  0
  6  7  1  0  0  0  0
  7  8  1  0  0  0  0
  8  9  1  0  0  0  0
  9 10  1  0  0  0  0
 10 11  1  0  0  0  0
 11 12  1  0  0  0  0
  9 12  1  0  0  0  0
  9 13  1  0  0  0  0
 13 14  1  0  0  0  0
 14 15  1  0  0  0  0
 15 16  2  0  0  0  0
 16 17  1  0  0  0  0
 17 18  2  0  0  0  0
 18 19  1  0  0  0  0
 19 20  2  0  0  0  0
 15 20  1  0  0  0  0
 13 21  1  0  0  0  0
 21 22  1  0  0  0  0
 22 23  2  0  0  0  0
 23 24  1  0  0  0  0
 24 25  2  0  0  0  0
 25 26  1  0  0  0  0
 26 27  2  0  0  0  0
 22 27  1  0  0  0  0
  6 28  1  0  0  0  0
 28 29  2  0  0  0  0
  2 29  1  0  0  0  0
 28 30  1  0  0  0  0
 30 31  3  0  0  0  0
M  END
> <ID>
CPD_1932

$$$$
CPD_1937
  Mrv1822 09091914012D          

 24 26  0  0  0  0            999 V2000
   -6.4302   10.8911    0.0000 O   0  0  0  0  0  0  0  0  0  0  0  0
   -5.7158   10.4786    0.0000 C   0  0  0  0  0  0  0  0  0  0  0  0
   -5.0013   10.8911    0.0000 C   0  0  0  0  0  0  0  0  0  0  0  0
   -4.2868   10.4786    0.0000 C   0  0  0  0  0  0  0  0  0  0  0  0
   -3.5724   10.8911    0.0000 F   0  0  0  0  0  0  0  0  0  0  0  0
   -4.2868    9.6536    0.0000 C   0  0  0  0  0  0  0  0  0  0  0  0
   -3.5724    9.2411    0.0000 N   0  0  0  0  0  0  0  0  0  0  0  0
   -3.5724    8.4161    0.0000 C   0  0  0  0  0  0  0  0  0  0  0  0
   -2.8579    8.0036    0.0000 C   0  0  0  0  0  0  0  0  0  0  0  0
   -2.8579    7.1786    0.0000 C   0  0  0  0  0  0  0  0  0  0  0  0
   -2.1434    6.7661    0.0000 O   0  0  0  0  0  0  0  0  0  0  0  0
   -2.1434    5.9411    0.0000 C   0  0  0  0  0  0  0  0  0  0  0  0
   -1.4289    5.5286    0.0000 C   0  0  0  0  0  0  0  0  0  0  0  0
   -1.4289    4.7036    0.0000 N   0  0  0  0  0  0  0  0  0  0  0  0
   -0.7615    4.2187    0.0000 C   0  0  0  0  0  0  0  0  0  0  0  0
   -1.0164    3.4340    0.0000 C   0  0  0  0  0  0  0  0  0  0  0  0
   -1.8414    3.4340    0.0000 N   0  0  0  0  0  0  0  0  0  0  0  0
   -2.0964    4.2187    0.0000 C   0  0  0  0  0  0  0  0  0  0  0  0
   -3.5724    6.7661    0.0000 C   0  0  0  0  0  0  0  0  0  0  0  0
   -4.2868    7.1786    0.0000 C   0  0  0  0  0  0  0  0  0  0  0  0
   -4.2868    8.0036    0.0000 C   0  0  0  0  0  0  0  0  0  0  0  0
   -5.0013    9.2411    0.0000 C   0  0  0  0  0  0  0  0  0  0  0  0
   -5.7158    9.6536    0.0000 C   0  0  0  0  0  0  0  0  0  0  0  0
   -6.4302    9.2411    0.0000 F   0  0  0  0  0  0  0  0  0  0  0  0
  1  2  1  0  0  0  0
  2  3  2  0  0  0  0
  3  4  1  0  0  0  0
  4  5  1  0  0  0  0
  4  6  2  0  0  0  0
  6  7  1  0  0  0  0
  7  8  1  0  0  0  0
  8  9  2  0  0  0  0
  9 10  1  0  0  0  0
 10 11  1  0  0  0  0
 11 12  1  0  0  0  0
 12 13  1  0  0  0  0
 13 14  1  0  0  0  0
 14 15  1  0  0  0  0
 15 16  2  0  0  0  0
 16 17  1  0  0  0  0
 17 18  2  0  0  0  0
 14 18  1  0  0  0  0
 10 19  2  0  0  0  0
 19 20  1  0  0  0  0
 20 21  2  0  0  0  0
  8 21  1  0  0  0  0
  6 22  1  0  0  0  0
 22 23  2  0  0  0  0
  2 23  1  0  0  0  0
 23 24  1  0  0  0  0
M  END
> <ID>
CPD_1937

$$$$
CPD_1942
  Mrv1822 09091914012D          

 27 30  0  0  0  0            999 V2000
    0.8838   -2.1500    0.0000 C   0  0  0  0  0  0  0  0  0  0  0  0
    1.1387   -1.3654    0.0000 N   0  0  0  0  0  0  0  0  0  0  0  0
    0.6538   -0.6979    0.0000 C   0  0  0  0  0  0  0  0  0  0  0  0
   -0.1712   -0.6979    0.0000 N   0  0  0  0  0  0  0  0  0  0  0  0
   -0.5837   -1.4124    0.0000 C   0  0  0  0  0  0  0  0  0  0  0  0
   -0.1712   -2.1269    0.0000 C   0  0  0  0  0  0  0  0  0  0  0  0
   -0.5837   -2.8414    0.0000 C   0  0  0  0  0  0  0  0  0  0  0  0
   -1.4087   -2.8414    0.0000 C   0  0  0  0  0  0  0  0  0  0  0  0
   -1.8212   -2.1269    0.0000 N   0  0  0  0  0  0  0  0  0  0  0  0
   -1.4087   -1.4124    0.0000 N   0  0  0  0  0  0  0  0  0  0  0  0
   -1.8212   -3.5558    0.0000 N   0  0  0  0  0  0  0  0  0  0  0  0
   -1.4856   -4.3095    0.0000 C   0  0  0  0  0  0  0  0  0  0  0  0
   -2.0987   -4.8615    0.0000 N   0  0  0  0  0  0  0  0  0  0  0  0
   -2.8132   -4.4490    0.0000 C   0  0  0  0  0  0  0  0  0  0  0  0
   -3.5669   -4.7846    0.0000 C   0  0  0  0  0  0  0  0  0  0  0  0
   -2.6417   -3.6421    0.0000 C   0  0  0  0  0  0  0  0  0  0  0  0
    1.1387   -0.0305    0.0000 N   0  0  0  0  0  0  0  0  0  0  0  0
    1.9233   -0.2854    0.0000 C   0  0  0  0  0  0  0  0  0  0  0  0
    2.6378    0.1271    0.0000 C   0  0  0  0  0  0  0  0  0  0  0  0
    3.3523   -0.2854    0.0000 C   0  0  0  0  0  0  0  0  0  0  0  0
    3.3523   -1.1104    0.0000 C   0  0  0  0  0  0  0  0  0  0  0  0
    2.6378   -1.5229    0.0000 C   0  0  0  0  0  0  0  0  0  0  0  0
    1.9233   -1.1104    0.0000 C   0  0  0  0  0  0  0  0  0  0  0  0
    4.0668    0.1271    0.0000 C   0  0  0  0  0  0  0  0  0  0  0  0
    4.7812    0.5396    0.0000 F   0  0  0  0  0  0  0  0  0  0  0  0
    4.4793   -0.5874    0.0000 F   0  0  0  0  0  0  0  0  0  0  0  0
    3.6543    0.8415    0.0000 F   0  0  0  0  0  0  0  0  0  0  0  0
  1  2  1  0  0  0  0
  2  3  1  0  0  0  0
  3  4  1  0  0  0  0
  4  5  1  0  0  0  0
  5  6  2  0  0  0  0
  6  7  1  0  0  0  0
  7  8  2  0  0  0  0
  8  9  1  0  0  0  0
  9 10  2  0  0  0  0
  5 10  1  0  0  0  0
  8 11  1  0  0  0  0
 11 12  1  0  0  0  0
 12 13  2  0  0  0  0
 13 14  1  0  0  0  0
 14 15  1  0  0  0  0
 14 16  2  0  0  0  0
 11 16  1  0  0  0  0
  3 17  2  0  0  0  0
 17 18  1  0  0  0  0
 18 19  2  0  0  0  0
 19 20  1  0  0  0  0
 20 21  2  0  0  0  0
 21 22  1  0  0  0  0
 22 23  2  0  0  0  0
  2 23  1  0  0  0  0
 18 23  1  0  0  0  0
 20 24  1  0  0  0  0
 24 25  1  0  0  0  0
 24 26  1  0  0  0  0
 24 27  1  0  0  0  0
M  END
> <ID>
CPD_1942

$$$$
CPD_1947
  Mrv1822 09091914012D          

 29 32  0  0  0  0            999 V2000
    0.8838   -2.1500    0.0000 C   0  0  0  0  0  0  0  0  0  0  0  0
    1.1387   -1.3654    0.0000 N   0  0  0  0  0  0  0  0  0  0  0  0
    0.6538   -0.6979    0.0000 C   0  0  0  0  0  0  0  0  0  0  0  0
   -0.1712   -0.6979    0.0000 N   0  0  0  0  0  0  0  0  0  0  0  0
   -0.5837   -1.4124    0.0000 C   0  0  0  0  0  0  0  0  0  0  0  0
   -0.1712   -2.1269    0.0000 C   0  0  0  0  0  0  0  0  0  0  0  0
   -0.5837   -2.8414    0.0000 C   0  0  0  0  0  0  0  0  0  0  0  0
   -0.1712   -3.5558    0.0000 F   0  0  0  0  0  0  0  0  0  0  0  0
   -1.4087   -2.8414    0.0000 C   0  0  0  0  0  0  0  0  0  0  0  0
   -1.8212   -2.1269    0.0000 C   0  0  0  0  0  0  0  0  0  0  0  0
   -1.4087   -1.4124    0.0000 C   0  0  0  0  0  0  0  0  0  0  0  0
   -2.6462   -2.1269    0.0000 C   0  0  0  0  0  0  0  0  0  0  0  0
   -3.0587   -2.8414    0.0000 C   0  0  0  0  0  0  0  0  0  0  0  0
   -3.8837   -2.8414    0.0000 C   0  0  0  0  0  0  0  0  0  0  0  0
   -4.2962   -2.1269    0.0000 C   0  0  0  0  0  0  0  0  0  0  0  0
   -3.8837   -1.4124    0.0000 C   0  0  0  0  0  0  0  0  0  0  0  0
   -4.2962   -0.6979    0.0000 N   0  0  0  0  0  0  0  0  0  0  0  0
   -3.0587   -1.4124    0.0000 C   0  0  0  0  0  0  0  0  0  0  0  0
    1.1387   -0.0305    0.0000 N   0  0  0  0  0  0  0  0  0  0  0  0
    1.9233   -0.2854    0.0000 C   0  0  0  0  0  0  0  0  0  0  0  0
    2.6378    0.1271    0.0000 C   0  0  0  0  0  0  0  0  0  0  0  0
    3.3523   -0.2854    0.0000 C   0  0  0  0  0  0  0  0  0  0  0  0
    3.3523   -1.1104    0.0000 C   0  0  0  0  0  0  0  0  0  0  0  0
    2.6378   -1.5229    0.0000 C   0  0  0  0  0  0  0  0  0  0  0  0
    1.9233   -1.1104    0.0000 C   0  0  0  0  0  0  0  0  0  0  0  0
    4.0668    0.1271    0.0000 C   0  0  0  0  0  0  0  0  0  0  0  0
    4.7812    0.5396    0.0000 F   0  0  0  0  0  0  0  0  0  0  0  0
    4.4793   -0.5874    0.0000 F   0  0  0  0  0  0  0  0  0  0  0  0
    3.6543    0.8415    0.0000 F   0  0  0  0  0  0  0  0  0  0  0  0
  1  2  1  0  0  0  0
  2  3  1  0  0  0  0
  3  4  1  0  0  0  0
  4  5  1  0  0  0  0
  5  6  2  0  0  0  0
  6  7  1  0  0  0  0
  7  8  1  0  0  0  0
  7  9  2  0  0  0  0
  9 10  1  0  0  0  0
 10 11  2  0  0  0  0
  5 11  1  0  0  0  0
 10 12  1  0  0  0  0
 12 13  2  0  0  0  0
 13 14  1  0  0  0  0
 14 15  2  0  0  0  0
 15 16  1  0  0  0  0
 16 17  1  0  0  0  0
 16 18  2  0  0  0  0
 12 18  1  0  0  0  0
  3 19  2  0  0  0  0
 19 20  1  0  0  0  0
 20 21  2  0  0  0  0
 21 22  1  0  0  0  0
 22 23  2  0  0  0  0
 23 24  1  0  0  0  0
 24 25  2  0  0  0  0
  2 25  1  0  0  0  0
 20 25  1  0  0  0  0
 22 26  1  0  0  0  0
 26 27  1  0  0  0  0
 26 28  1  0  0  0  0
 26 29  1  0  0  0  0
M  END
> <ID>
CPD_1947

$$$$
CPD_1952
  Mrv1822 09091914012D          

 32 34  0  0  0  0            999 V2000
   -4.1666   -3.4962    0.0000 C   0  0  0  0  0  0  0  0  0  0  0  0
   -3.4521   -3.9087    0.0000 O   0  0  0  0  0  0  0  0  0  0  0  0
   -3.4521   -4.7337    0.0000 C   0  0  0  0  0  0  0  0  0  0  0  0
   -2.7377   -5.1462    0.0000 C   0  0  0  0  0  0  0  0  0  0  0  0
   -2.7377   -5.9712    0.0000 C   0  0  0  0  0  0  0  0  0  0  0  0
   -2.0232   -6.3837    0.0000 F   0  0  0  0  0  0  0  0  0  0  0  0
   -3.4521   -6.3837    0.0000 C   0  0  0  0  0  0  0  0  0  0  0  0
   -4.1666   -5.9712    0.0000 C   0  0  0  0  0  0  0  0  0  0  0  0
   -4.1666   -5.1462    0.0000 C   0  0  0  0  0  0  0  0  0  0  0  0
   -3.4521   -7.2087    0.0000 C   0  0  0  0  0  0  0  0  0  0  0  0
   -4.1666   -7.6212    0.0000 C   0  0  0  0  0  0  0  0  0  0  0  0
   -2.7377   -7.6212    0.0000 N   0  0  0  0  0  0  0  0  0  0  0  0
   -2.7377   -8.4462    0.0000 C   0  0  0  0  0  0  0  0  0  0  0  0
   -3.5501   -8.3029    0.0000 F   0  0  0  0  0  0  0  0  0  0  0  0
   -1.9252   -8.3029    0.0000 C   0  0  0  0  0  0  0  0  0  0  0  0
   -1.3949   -8.9349    0.0000 C   0  0  0  0  0  0  0  0  0  0  0  0
   -1.6771   -9.7102    0.0000 C   0  0  0  0  0  0  0  0  0  0  0  0
   -2.4895   -9.8534    0.0000 N   0  0  0  0  0  0  0  0  0  0  0  0
   -3.0198   -9.2215    0.0000 C   0  0  0  0  0  0  0  0  0  0  0  0
   -2.7717  -10.6287    0.0000 C   0  0  0  0  0  0  0  0  0  0  0  0
   -2.2414  -11.2607    0.0000 O   0  0  0  0  0  0  0  0  0  0  0  0
   -3.5842  -10.7719    0.0000 O   0  0  0  0  0  0  0  0  0  0  0  0
   -3.8663  -11.5472    0.0000 C   0  0  0  0  0  0  0  0  0  0  0  0
   -3.3360  -12.1792    0.0000 C   0  0  0  0  0  0  0  0  0  0  0  0
   -2.5236  -12.0359    0.0000 C   0  0  0  0  0  0  0  0  0  0  0  0
   -1.9933  -12.6679    0.0000 C   0  0  0  0  0  0  0  0  0  0  0  0
   -2.2754  -13.4432    0.0000 C   0  0  0  0  0  0  0  0  0  0  0  0
   -3.0879  -13.5864    0.0000 C   0  0  0  0  0  0  0  0  0  0  0  0
   -3.6182  -12.9544    0.0000 C   0  0  0  0  0  0  0  0  0  0  0  0
   -0.5824   -8.7917    0.0000 C   0  0  0  0  0  0  0  0  0  0  0  0
   -0.0521   -9.4237    0.0000 O   0  0  0  0  0  0  0  0  0  0  0  0
   -0.3003   -8.0164    0.0000 O   0  0  0  0  0  0  0  0  0  0  0  0
  1  2  1  0  0  0  0
  2  3  1  0  0  0  0
  3  4  2  0  0  0  0
  4  5  1  0  0  0  0
  5  6  1  0  0  0  0
  5  7  2  0  0  0  0
  7  8  1  0  0  0  0
  8  9  2  0  0  0  0
  3  9  1  0  0  0  0
  7 10  1  0  0  0  0
 10 11  1  0  0  0  0
 10 12  1  0  0  0  0
 12 13  1  0  0  0  0
 13 14  1  0  0  0  0
 13 15  1  0  0  0  0
 15 16  1  0  0  0  0
 16 17  1  0  0  0  0
 17 18  1  0  0  0  0
 18 19  1  0  0  0  0
 13 19  1  0  0  0  0
 18 20  1  0  0  0  0
 20 21  2  0  0  0  0
 20 22  1  0  0  0  0
 22 23  1  0  0  0  0
 23 24  1  0  0  0  0
 24 25  2  0  0  0  0
 25 26  1  0  0  0  0
 26 27  2  0  0  0  0
 27 28  1  0  0  0  0
 28 29  2  0  0  0  0
 24 29  1  0  0  0  0
 16 30  1  0  0  0  0
 30 31  1  0  0  0  0
 30 32  2  0  0  0  0
M  END
> <ID>
CPD_1952

$$$$
CPD_1957
  Mrv1822 09091914012D          

 26 28  0  0  0  0            999 V2000
    5.1252    9.9024    0.0000 C   0  0  0  0  0  0  0  0  0  0  0  0
    5.3387    9.1055    0.0000 O   0  0  0  0  0  0  0  0  0  0  0  0
    4.7554    8.5222    0.0000 C   0  0  0  0  0  0  0  0  0  0  0  0
    4.9689    7.7253    0.0000 C   0  0  0  0  0  0  0  0  0  0  0  0
    4.3855    7.1419    0.0000 C   0  0  0  0  0  0  0  0  0  0  0  0
    4.5990    6.3450    0.0000 F   0  0  0  0  0  0  0  0  0  0  0  0
    3.5886    7.3554    0.0000 C   0  0  0  0  0  0  0  0  0  0  0  0
    3.3751    8.1523    0.0000 C   0  0  0  0  0  0  0  0  0  0  0  0
    3.9585    8.7357    0.0000 C   0  0  0  0  0  0  0  0  0  0  0  0
    3.0053    6.7721    0.0000 C   0  0  0  0  0  0  0  0  0  0  0  0
    2.2084    6.9856    0.0000 C   0  0  0  0  0  0  0  0  0  0  0  0
    3.2188    5.9752    0.0000 N   0  0  0  0  0  0  0  0  0  0  0  0
    2.6354    5.3918    0.0000 C   0  0  0  0  0  0  0  0  0  0  0  0
    2.0521    5.9752    0.0000 F   0  0  0  0  0  0  0  0  0  0  0  0
    3.2188    4.8085    0.0000 F   0  0  0  0  0  0  0  0  0  0  0  0
    2.0521    4.8085    0.0000 C   0  0  0  0  0  0  0  0  0  0  0  0
    2.2656    4.0116    0.0000 C   0  0  0  0  0  0  0  0  0  0  0  0
    1.6822    3.4282    0.0000 C   0  0  0  0  0  0  0  0  0  0  0  0
    0.8853    3.6417    0.0000 C   0  0  0  0  0  0  0  0  0  0  0  0
    0.6718    4.4386    0.0000 C   0  0  0  0  0  0  0  0  0  0  0  0
    1.2552    5.0220    0.0000 C   0  0  0  0  0  0  0  0  0  0  0  0
    0.3020    3.0584    0.0000 C   0  0  0  0  0  0  0  0  0  0  0  0
   -0.2814    3.6417    0.0000 N   0  0  0  0  0  0  0  0  0  0  0  0
    0.8853    2.4750    0.0000 C   0  0  0  0  0  0  0  0  0  0  0  0
    0.3020    1.8916    0.0000 O   0  0  0  0  0  0  0  0  0  0  0  0
   -0.2814    2.4750    0.0000 C   0  0  0  0  0  0  0  0  0  0  0  0
  1  2  1  0  0  0  0
  2  3  1  0  0  0  0
  3  4  2  0  0  0  0
  4  5  1  0  0  0  0
  5  6  1  0  0  0  0
  5  7  2  0  0  0  0
  7  8  1  0  0  0  0
  8  9  2  0  0  0  0
  3  9  1  0  0  0  0
  7 10  1  0  0  0  0
 10 11  1  0  0  0  0
 10 12  1  0  0  0  0
 12 13  1  0  0  0  0
 13 14  1  0  0  0  0
 13 15  1  0  0  0  0
 13 16  1  0  0  0  0
 16 17  2  0  0  0  0
 17 18  1  0  0  0  0
 18 19  2  0  0  0  0
 19 20  1  0  0  0  0
 20 21  2  0  0  0  0
 16 21  1  0  0  0  0
 19 22  1  0  0  0  0
 22 23  1  0  0  0  0
 22 24  1  0  0  0  0
 24 25  1  0  0  0  0
 25 26  1  0  0  0  0
 22 26  1  0  0  0  0
M  END
> <ID>
CPD_1957

$$$$
CPD_1962
  Mrv1822 09091914012D          

 34 37  0  0  0  0            999 V2000
   -0.7145    6.1875    0.0000 C   0  0  0  0  0  0  0  0  0  0  0  0
    0.0000    5.7750    0.0000 O   0  0  0  0  0  0  0  0  0  0  0  0
    0.0000    4.9500    0.0000 C   0  0  0  0  0  0  0  0  0  0  0  0
    0.7145    4.5375    0.0000 C   0  0  0  0  0  0  0  0  0  0  0  0
    0.7145    3.7125    0.0000 C   0  0  0  0  0  0  0  0  0  0  0  0
    1.4289    3.3000    0.0000 F   0  0  0  0  0  0  0  0  0  0  0  0
    0.0000    3.3000    0.0000 C   0  0  0  0  0  0  0  0  0  0  0  0
   -0.7145    3.7125    0.0000 C   0  0  0  0  0  0  0  0  0  0  0  0
   -0.7145    4.5375    0.0000 C   0  0  0  0  0  0  0  0  0  0  0  0
    0.0000    2.4750    0.0000 C   0  0  0  0  0  0  0  0  0  0  0  0
   -0.7145    2.0625    0.0000 C   0  0  0  0  0  0  0  0  0  0  0  0
    0.7145    2.0625    0.0000 N   0  0  0  0  0  0  0  0  0  0  0  0
    0.7145    1.2375    0.0000 C   0  0  0  0  0  0  0  0  0  0  0  0
    1.4289    0.8250    0.0000 C   0  0  0  0  0  0  0  0  0  0  0  0
    1.4289   -0.0000    0.0000 C   0  0  0  0  0  0  0  0  0  0  0  0
    0.7145   -0.4125    0.0000 C   0  0  0  0  0  0  0  0  0  0  0  0
    0.0000    0.0000    0.0000 C   0  0  0  0  0  0  0  0  0  0  0  0
    0.0000    0.8250    0.0000 C   0  0  0  0  0  0  0  0  0  0  0  0
    0.7145   -1.2375    0.0000 N   0  0  0  0  0  0  0  0  0  0  0  0
    1.3819   -1.7224    0.0000 C   0  0  0  0  0  0  0  0  0  0  0  0
    1.1270   -2.5070    0.0000 C   0  0  0  0  0  0  0  0  0  0  0  0
    1.6119   -3.1745    0.0000 C   0  0  0  0  0  0  0  0  0  0  0  0
    2.4324   -3.0882    0.0000 C   0  0  0  0  0  0  0  0  0  0  0  0
    2.9173   -3.7557    0.0000 C   0  0  0  0  0  0  0  0  0  0  0  0
    3.7378   -3.6695    0.0000 O   0  0  0  0  0  0  0  0  0  0  0  0
    2.5817   -4.5094    0.0000 O   0  0  0  0  0  0  0  0  0  0  0  0
    0.3020   -2.5070    0.0000 C   0  0  0  0  0  0  0  0  0  0  0  0
    0.0470   -1.7224    0.0000 N   0  0  0  0  0  0  0  0  0  0  0  0
   -0.1830   -3.1745    0.0000 C   0  0  0  0  0  0  0  0  0  0  0  0
    0.1526   -3.9282    0.0000 C   0  0  0  0  0  0  0  0  0  0  0  0
   -0.3323   -4.5956    0.0000 C   0  0  0  0  0  0  0  0  0  0  0  0
   -1.1528   -4.5094    0.0000 C   0  0  0  0  0  0  0  0  0  0  0  0
   -1.4884   -3.7557    0.0000 C   0  0  0  0  0  0  0  0  0  0  0  0
   -1.0034   -3.0882    0.0000 C   0  0  0  0  0  0  0  0  0  0  0  0
  1  2  1  0  0  0  0
  2  3  1  0  0  0  0
  3  4  2  0  0  0  0
  4  5  1  0  0  0  0
  5  6  1  0  0  0  0
  5  7  2  0  0  0  0
  7  8  1  0  0  0  0
  8  9  2  0  0  0  0
  3  9  1  0  0  0  0
  7 10  1  0  0  0  0
 10 11  1  0  0  0  0
 10 12  1  0  0  0  0
 12 13  1  0  0  0  0
 13 14  2  0  0  0  0
 14 15  1  0  0  0  0
 15 16  2  0  0  0  0
 16 17  1  0  0  0  0
 17 18  2  0  0  0  0
 13 18  1  0  0  0  0
 16 19  1  0  0  0  0
 19 20  1  0  0  0  0
 20 21  2  0  0  0  0
 21 22  1  0  0  0  0
 22 23  1  0  0  0  0
 23 24  1  0  0  0  0
 24 25  1  0  0  0  0
 24 26  2  0  0  0  0
 21 27  1  0  0  0  0
 27 28  2  0  0  0  0
 19 28  1  0  0  0  0
 27 29  1  0  0  0  0
 29 30  2  0  0  0  0
 30 31  1  0  0  0  0
 31 32  2  0  0  0  0
 32 33  1  0  0  0  0
 33 34  2  0  0  0  0
 29 34  1  0  0  0  0
M  END
> <ID>
CPD_1962

$$$$
CPD_1967
  Mrv1822 09091914012D          

 24 27  0  0  0  0            999 V2000
   -1.5074    0.1539    0.0000 F   0  0  0  0  0  0  0  0  0  0  0  0
   -1.4211    0.9744    0.0000 C   0  0  0  0  0  0  0  0  0  0  0  0
   -2.0886    1.4593    0.0000 C   0  0  0  0  0  0  0  0  0  0  0  0
   -2.0023    2.2798    0.0000 C   0  0  0  0  0  0  0  0  0  0  0  0
   -2.6698    2.7647    0.0000 N   0  0  0  0  0  0  0  0  0  0  0  0
   -2.5835    3.5852    0.0000 C   0  0  0  0  0  0  0  0  0  0  0  0
   -3.1966    4.1372    0.0000 N   0  0  0  0  0  0  0  0  0  0  0  0
   -2.8611    4.8909    0.0000 C   0  0  0  0  0  0  0  0  0  0  0  0
   -2.0406    4.8046    0.0000 N   0  0  0  0  0  0  0  0  0  0  0  0
   -1.8690    3.9977    0.0000 S   0  0  0  0  0  0  0  0  0  0  0  0
   -1.2486    2.6153    0.0000 C   0  0  0  0  0  0  0  0  0  0  0  0
   -0.5812    2.1304    0.0000 C   0  0  0  0  0  0  0  0  0  0  0  0
   -0.6674    1.3099    0.0000 C   0  0  0  0  0  0  0  0  0  0  0  0
    0.0000    0.8250    0.0000 N   0  0  0  0  0  0  0  0  0  0  0  0
    0.7846    1.0799    0.0000 C   0  0  0  0  0  0  0  0  0  0  0  0
    1.2695    0.4125    0.0000 C   0  0  0  0  0  0  0  0  0  0  0  0
    1.6820    1.1270    0.0000 C   0  0  0  0  0  0  0  0  0  0  0  0
    2.5070    1.1270    0.0000 C   0  0  0  0  0  0  0  0  0  0  0  0
    2.9195    0.4125    0.0000 N   0  0  0  0  0  0  0  0  0  0  0  0
    2.5070   -0.3020    0.0000 C   0  0  0  0  0  0  0  0  0  0  0  0
    1.6820   -0.3020    0.0000 C   0  0  0  0  0  0  0  0  0  0  0  0
    0.7846   -0.2549    0.0000 O   0  0  0  0  0  0  0  0  0  0  0  0
   -0.0000    0.0000    0.0000 C   0  0  0  0  0  0  0  0  0  0  0  0
   -0.6674   -0.4849    0.0000 O   0  0  0  0  0  0  0  0  0  0  0  0
  1  2  1  0  0  0  0
  2  3  2  0  0  0  0
  3  4  1  0  0  0  0
  4  5  1  0  0  0  0
  5  6  1  0  0  0  0
  6  7  2  0  0  0  0
  7  8  1  0  0  0  0
  8  9  2  0  0  0  0
  9 10  1  0  0  0  0
  6 10  1  0  0  0  0
  4 11  2  0  0  0  0
 11 12  1  0  0  0  0
 12 13  2  0  0  0  0
  2 13  1  0  0  0  0
 13 14  1  0  0  0  0
 14 15  1  0  0  0  0
 15 16  1  0  0  0  0
 16 17  1  0  0  0  0
 17 18  1  0  0  0  0
 18 19  1  0  0  0  0
 19 20  1  0  0  0  0
 20 21  1  0  0  0  0
 16 21  1  0  0  0  0
 16 22  1  0  0  0  0
 22 23  1  0  0  0  0
 14 23  1  0  0  0  0
 23 24  2  0  0  0  0
M  END
> <ID>
CPD_1967

$$$$
CPD_1972
  Mrv1822 09091914012D          

 17 18  0  0  0  0            999 V2000
   -2.0367    4.3527    0.0000 C   0  0  0  0  0  0  0  0  0  0  0  0
   -2.0367    3.5277    0.0000 C   0  0  0  0  0  0  0  0  0  0  0  0
   -1.3222    3.1152    0.0000 O   0  0  0  0  0  0  0  0  0  0  0  0
   -2.7512    3.1152    0.0000 C   0  0  0  0  0  0  0  0  0  0  0  0
   -2.7512    2.2902    0.0000 C   0  0  0  0  0  0  0  0  0  0  0  0
   -2.0367    1.8777    0.0000 N   0  0  0  0  0  0  0  0  0  0  0  0
   -2.0367    1.0527    0.0000 C   0  0  0  0  0  0  0  0  0  0  0  0
   -1.3693    0.5678    0.0000 N   0  0  0  0  0  0  0  0  0  0  0  0
   -1.6242   -0.2169    0.0000 C   0  0  0  0  0  0  0  0  0  0  0  0
   -2.4492   -0.2169    0.0000 N   0  0  0  0  0  0  0  0  0  0  0  0
   -2.7041    0.5678    0.0000 S   0  0  0  0  0  0  0  0  0  0  0  0
   -3.4656    1.8777    0.0000 C   0  0  0  0  0  0  0  0  0  0  0  0
   -4.1801    2.2902    0.0000 C   0  0  0  0  0  0  0  0  0  0  0  0
   -4.1801    3.1152    0.0000 C   0  0  0  0  0  0  0  0  0  0  0  0
   -4.8946    3.5277    0.0000 F   0  0  0  0  0  0  0  0  0  0  0  0
   -3.4656    3.5277    0.0000 C   0  0  0  0  0  0  0  0  0  0  0  0
   -3.4656    4.3527    0.0000 F   0  0  0  0  0  0  0  0  0  0  0  0
  1  2  1  0  0  0  0
  2  3  2  0  0  0  0
  2  4  1  0  0  0  0
  4  5  2  0  0  0  0
  5  6  1  0  0  0  0
  6  7  1  0  0  0  0
  7  8  2  0  0  0  0
  8  9  1  0  0  0  0
  9 10  2  0  0  0  0
 10 11  1  0  0  0  0
  7 11  1  0  0  0  0
  5 12  1  0  0  0  0
 12 13  2  0  0  0  0
 13 14  1  0  0  0  0
 14 15  1  0  0  0  0
 14 16  2  0  0  0  0
  4 16  1  0  0  0  0
 16 17  1  0  0  0  0
M  END
> <ID>
CPD_1972

$$$$
CPD_1977
  Mrv1822 09091914012D          

 19 20  0  0  0  0            999 V2000
    2.1434   -1.2375    0.0000 C   0  0  0  0  0  0  0  0  0  0  0  0
    1.4289   -1.6500    0.0000 O   0  0  0  0  0  0  0  0  0  0  0  0
    1.4289   -2.4750    0.0000 C   0  0  0  0  0  0  0  0  0  0  0  0
    2.1434   -2.8875    0.0000 C   0  0  0  0  0  0  0  0  0  0  0  0
    2.1434   -3.7125    0.0000 C   0  0  0  0  0  0  0  0  0  0  0  0
    1.4289   -4.1250    0.0000 C   0  0  0  0  0  0  0  0  0  0  0  0
    0.7145   -3.7125    0.0000 C   0  0  0  0  0  0  0  0  0  0  0  0
    0.0000   -4.1250    0.0000 F   0  0  0  0  0  0  0  0  0  0  0  0
    0.7145   -2.8875    0.0000 C   0  0  0  0  0  0  0  0  0  0  0  0
    0.0000   -2.4750    0.0000 N   0  0  0  0  0  0  0  0  0  0  0  0
    0.0000   -1.6500    0.0000 C   0  0  0  0  0  0  0  0  0  0  0  0
   -0.7145   -2.8875    0.0000 C   0  0  0  0  0  0  0  0  0  0  0  0
   -1.4289   -2.4750    0.0000 C   0  0  0  0  0  0  0  0  0  0  0  0
   -2.1434   -2.8875    0.0000 C   0  0  0  0  0  0  0  0  0  0  0  0
   -2.1434   -3.7125    0.0000 C   0  0  0  0  0  0  0  0  0  0  0  0
   -2.8579   -2.4750    0.0000 C   0  0  0  0  0  0  0  0  0  0  0  0
   -2.8579   -1.6500    0.0000 C   0  0  0  0  0  0  0  0  0  0  0  0
   -2.1434   -1.2375    0.0000 C   0  0  0  0  0  0  0  0  0  0  0  0
   -1.4289   -1.6500    0.0000 C   0  0  0  0  0  0  0  0  0  0  0  0
  1  2  1  0  0  0  0
  2  3  1  0  0  0  0
  3  4  2  0  0  0  0
  4  5  1  0  0  0  0
  5  6  2  0  0  0  0
  6  7  1  0  0  0  0
  7  8  1  0  0  0  0
  7  9  2  0  0  0  0
  3  9  1  0  0  0  0
  9 10  1  0  0  0  0
 10 11  1  0  0  0  0
 10 12  1  0  0  0  0
 12 13  1  0  0  0  0
 13 14  2  0  0  0  0
 14 15  1  0  0  0  0
 14 16  1  0  0  0  0
 16 17  2  0  0  0  0
 17 18  1  0  0  0  0
 18 19  2  0  0  0  0
 13 19  1  0  0  0  0
M  END
> <ID>
CPD_1977

$$$$
CPD_1982
  Mrv1822 09091914012D          

 20 21  0  0  0  0            999 V2000
    1.1866    0.8344    0.0000 C   0  0  0  0  0  0  0  0  0  0  0  0
    0.3897    1.0480    0.0000 C   0  0  0  0  0  0  0  0  0  0  0  0
   -0.1936    0.4646    0.0000 O   0  0  0  0  0  0  0  0  0  0  0  0
    0.0199   -0.3323    0.0000 C   0  0  0  0  0  0  0  0  0  0  0  0
    0.8168   -0.5458    0.0000 O   0  0  0  0  0  0  0  0  0  0  0  0
   -0.5635   -0.9157    0.0000 C   0  0  0  0  0  0  0  0  0  0  0  0
   -1.1468   -1.4990    0.0000 C   0  0  0  0  0  0  0  0  0  0  0  0
   -0.5635   -2.0824    0.0000 C   0  0  0  0  0  0  0  0  0  0  0  0
    0.0199   -1.4990    0.0000 C   0  0  0  0  0  0  0  0  0  0  0  0
   -1.1468   -0.3323    0.0000 N   0  0  0  0  0  0  0  0  0  0  0  0
   -0.9333    0.4646    0.0000 C   0  0  0  0  0  0  0  0  0  0  0  0
   -1.9437   -0.5458    0.0000 C   0  0  0  0  0  0  0  0  0  0  0  0
   -2.1573   -1.3427    0.0000 C   0  0  0  0  0  0  0  0  0  0  0  0
   -1.5739   -1.9261    0.0000 F   0  0  0  0  0  0  0  0  0  0  0  0
   -2.9542   -1.5562    0.0000 C   0  0  0  0  0  0  0  0  0  0  0  0
   -3.5375   -0.9729    0.0000 C   0  0  0  0  0  0  0  0  0  0  0  0
   -3.3240   -0.1760    0.0000 C   0  0  0  0  0  0  0  0  0  0  0  0
   -2.5271    0.0375    0.0000 C   0  0  0  0  0  0  0  0  0  0  0  0
   -2.3136    0.8344    0.0000 O   0  0  0  0  0  0  0  0  0  0  0  0
   -1.5167    1.0480    0.0000 C   0  0  0  0  0  0  0  0  0  0  0  0
  1  2  1  0  0  0  0
  2  3  1  0  0  0  0
  3  4  1  0  0  0  0
  4  5  2  0  0  0  0
  4  6  1  0  0  0  0
  6  7  1  0  0  0  0
  7  8  1  0  0  0  0
  8  9  1  0  0  0  0
  6  9  1  0  0  0  0
  6 10  1  0  0  0  0
 10 11  1  0  0  0  0
 10 12  1  0  0  0  0
 12 13  2  0  0  0  0
 13 14  1  0  0  0  0
 13 15  1  0  0  0  0
 15 16  2  0  0  0  0
 16 17  1  0  0  0  0
 17 18  2  0  0  0  0
 12 18  1  0  0  0  0
 18 19  1  0  0  0  0
 19 20  1  0  0  0  0
M  END
> <ID>
CPD_1982

$$$$
CPD_1987
  Mrv1822 09091914012D          

 35 39  0  0  0  0            999 V2000
   -5.4256   -0.2610    0.0000 C   0  0  0  0  0  0  0  0  0  0  0  0
   -4.7111   -0.6735    0.0000 S   0  0  0  0  0  0  0  0  0  0  0  0
   -4.7111   -1.4985    0.0000 O   0  0  0  0  0  0  0  0  0  0  0  0
   -3.9966   -0.2610    0.0000 C   0  0  0  0  0  0  0  0  0  0  0  0
   -3.2430   -0.5966    0.0000 N   0  0  0  0  0  0  0  0  0  0  0  0
   -2.6909    0.0165    0.0000 C   0  0  0  0  0  0  0  0  0  0  0  0
   -3.1034    0.7310    0.0000 C   0  0  0  0  0  0  0  0  0  0  0  0
   -3.9104    0.5595    0.0000 S   0  0  0  0  0  0  0  0  0  0  0  0
   -2.6909    1.4455    0.0000 C   0  0  0  0  0  0  0  0  0  0  0  0
   -1.8659    1.4455    0.0000 C   0  0  0  0  0  0  0  0  0  0  0  0
   -1.4534    0.7310    0.0000 C   0  0  0  0  0  0  0  0  0  0  0  0
   -1.8659    0.0165    0.0000 C   0  0  0  0  0  0  0  0  0  0  0  0
   -1.4534   -0.6979    0.0000 N   0  0  0  0  0  0  0  0  0  0  0  0
   -0.6284   -0.6979    0.0000 C   0  0  0  0  0  0  0  0  0  0  0  0
   -0.1435   -1.3654    0.0000 C   0  0  0  0  0  0  0  0  0  0  0  0
   -0.3984   -2.1500    0.0000 C   0  0  0  0  0  0  0  0  0  0  0  0
    0.1536   -2.7631    0.0000 N   0  0  0  0  0  0  0  0  0  0  0  0
   -1.2054   -2.3215    0.0000 O   0  0  0  0  0  0  0  0  0  0  0  0
    0.6411   -1.1104    0.0000 C   0  0  0  0  0  0  0  0  0  0  0  0
    0.6411   -0.2854    0.0000 C   0  0  0  0  0  0  0  0  0  0  0  0
    1.3556    0.1271    0.0000 C   0  0  0  0  0  0  0  0  0  0  0  0
    2.0701   -0.2854    0.0000 N   0  0  0  0  0  0  0  0  0  0  0  0
    2.0701   -1.1104    0.0000 C   0  0  0  0  0  0  0  0  0  0  0  0
    1.3556   -1.5229    0.0000 C   0  0  0  0  0  0  0  0  0  0  0  0
    2.7845    0.1271    0.0000 C   0  0  0  0  0  0  0  0  0  0  0  0
    2.7845    0.9521    0.0000 O   0  0  0  0  0  0  0  0  0  0  0  0
    3.4990   -0.2854    0.0000 O   0  0  0  0  0  0  0  0  0  0  0  0
    3.4990   -1.1104    0.0000 C   0  0  0  0  0  0  0  0  0  0  0  0
    4.2135   -1.5229    0.0000 C   0  0  0  0  0  0  0  0  0  0  0  0
    4.9279   -1.1104    0.0000 C   0  0  0  0  0  0  0  0  0  0  0  0
    5.6424   -1.5229    0.0000 C   0  0  0  0  0  0  0  0  0  0  0  0
    5.6424   -2.3479    0.0000 C   0  0  0  0  0  0  0  0  0  0  0  0
    4.9279   -2.7604    0.0000 C   0  0  0  0  0  0  0  0  0  0  0  0
    4.2135   -2.3479    0.0000 C   0  0  0  0  0  0  0  0  0  0  0  0
   -0.1435   -0.0305    0.0000 S   0  0  0  0  0  0  0  0  0  0  0  0
  1  2  1  0  0  0  0
  2  3  2  0  0  0  0
  2  4  1  0  0  0  0
  4  5  2  0  0  0  0
  5  6  1  0  0  0  0
  6  7  2  0  0  0  0
  7  8  1  0  0  0  0
  4  8  1  0  0  0  0
  7  9  1  0  0  0  0
  9 10  2  0  0  0  0
 10 11  1  0  0  0  0
 11 12  2  0  0  0  0
  6 12  1  0  0  0  0
 12 13  1  0  0  0  0
 13 14  1  0  0  0  0
 14 15  2  0  0  0  0
 15 16  1  0  0  0  0
 16 17  1  0  0  0  0
 16 18  2  0  0  0  0
 15 19  1  0  0  0  0
 19 20  2  0  0  0  0
 20 21  1  0  0  0  0
 21 22  1  0  0  0  0
 22 23  1  0  0  0  0
 23 24  1  0  0  0  0
 19 24  1  0  0  0  0
 22 25  1  0  0  0  0
 25 26  2  0  0  0  0
 25 27  1  0  0  0  0
 27 28  1  0  0  0  0
 28 29  1  0  0  0  0
 29 30  2  0  0  0  0
 30 31  1  0  0  0  0
 31 32  2  0  0  0  0
 32 33  1  0  0  0  0
 33 34  2  0  0  0  0
 29 34  1  0  0  0  0
 20 35  1  0  0  0  0
 14 35  1  0  0  0  0
M  END
> <ID>
CPD_1987

$$$$
CPD_1992
  Mrv1822 09091914012D          

 24 25  0  0  0  0            999 V2000
   -2.8579   -1.6500    0.0000 C   0  0  0  0  0  0  0  0  0  0  0  0
   -2.1434   -1.2375    0.0000 S   0  0  0  0  0  0  0  0  0  0  0  0
   -1.4289   -1.6500    0.0000 C   0  0  0  0  0  0  0  0  0  0  0  0
   -0.7145   -1.2375    0.0000 C   0  0  0  0  0  0  0  0  0  0  0  0
    0.0000   -1.6500    0.0000 C   0  0  0  0  0  0  0  0  0  0  0  0
    0.0000   -2.4750    0.0000 C   0  0  0  0  0  0  0  0  0  0  0  0
    0.7145   -2.8875    0.0000 O   0  0  0  0  0  0  0  0  0  0  0  0
    1.4289   -2.4750    0.0000 C   0  0  0  0  0  0  0  0  0  0  0  0
    2.1434   -2.8875    0.0000 C   0  0  0  0  0  0  0  0  0  0  0  0
    2.8579   -2.4750    0.0000 N   0  0  0  0  0  0  0  0  0  0  0  0
    3.5724   -2.8875    0.0000 C   0  0  0  0  0  0  0  0  0  0  0  0
    4.2868   -2.4750    0.0000 C   0  0  0  0  0  0  0  0  0  0  0  0
    5.0013   -2.8875    0.0000 C   0  0  0  0  0  0  0  0  0  0  0  0
    5.0013   -3.7125    0.0000 C   0  0  0  0  0  0  0  0  0  0  0  0
    4.2868   -4.1250    0.0000 C   0  0  0  0  0  0  0  0  0  0  0  0
    4.2868   -4.9500    0.0000 N   0  0  0  0  0  0  0  0  0  0  0  0
    3.5724   -3.7125    0.0000 C   0  0  0  0  0  0  0  0  0  0  0  0
    5.7158   -2.4750    0.0000 C   0  0  0  0  0  0  0  0  0  0  0  0
    5.7158   -1.6500    0.0000 O   0  0  0  0  0  0  0  0  0  0  0  0
    6.4302   -2.8875    0.0000 N   0  0  0  0  0  0  0  0  0  0  0  0
    7.1447   -2.4750    0.0000 C   0  0  0  0  0  0  0  0  0  0  0  0
    6.4302   -3.7125    0.0000 C   0  0  0  0  0  0  0  0  0  0  0  0
   -0.7145   -2.8875    0.0000 C   0  0  0  0  0  0  0  0  0  0  0  0
   -1.4289   -2.4750    0.0000 C   0  0  0  0  0  0  0  0  0  0  0  0
  1  2  1  0  0  0  0
  2  3  1  0  0  0  0
  3  4  2  0  0  0  0
  4  5  1  0  0  0  0
  5  6  2  0  0  0  0
  6  7  1  0  0  0  0
  7  8  1  0  0  0  0
  8  9  1  0  0  0  0
  9 10  1  0  0  0  0
 10 11  1  0  0  0  0
 11 12  2  0  0  0  0
 12 13  1  0  0  0  0
 13 14  2  0  0  0  0
 14 15  1  0  0  0  0
 15 16  1  0  0  0  0
 15 17  2  0  0  0  0
 11 17  1  0  0  0  0
 13 18  1  0  0  0  0
 18 19  2  0  0  0  0
 18 20  1  0  0  0  0
 20 21  1  0  0  0  0
 20 22  1  0  0  0  0
  6 23  1  0  0  0  0
 23 24  2  0  0  0  0
  3 24  1  0  0  0  0
M  END
> <ID>
CPD_1992

$$$$
CPD_1997
  Mrv1822 09091914012D          

 21 21  0  0  0  0            999 V2000
   -2.8579    7.4250    0.0000 C   0  0  0  0  0  0  0  0  0  0  0  0
   -2.8579    6.6000    0.0000 C   0  0  0  0  0  0  0  0  0  0  0  0
   -2.1434    6.1875    0.0000 O   0  0  0  0  0  0  0  0  0  0  0  0
   -2.1434    5.3625    0.0000 C   0  0  0  0  0  0  0  0  0  0  0  0
   -2.8579    4.9500    0.0000 O   0  0  0  0  0  0  0  0  0  0  0  0
   -1.4289    4.9500    0.0000 C   0  0  0  0  0  0  0  0  0  0  0  0
   -1.8414    4.2355    0.0000 F   0  0  0  0  0  0  0  0  0  0  0  0
   -1.0164    5.6645    0.0000 F   0  0  0  0  0  0  0  0  0  0  0  0
   -0.7145    4.5375    0.0000 C   0  0  0  0  0  0  0  0  0  0  0  0
   -0.7145    3.7125    0.0000 N   0  0  0  0  0  0  0  0  0  0  0  0
    0.0000    3.3000    0.0000 C   0  0  0  0  0  0  0  0  0  0  0  0
    0.0000    2.4750    0.0000 C   0  0  0  0  0  0  0  0  0  0  0  0
    0.7145    2.0625    0.0000 O   0  0  0  0  0  0  0  0  0  0  0  0
    0.7145    1.2375    0.0000 C   0  0  0  0  0  0  0  0  0  0  0  0
    1.4289    0.8250    0.0000 C   0  0  0  0  0  0  0  0  0  0  0  0
    1.4289   -0.0000    0.0000 C   0  0  0  0  0  0  0  0  0  0  0  0
    0.7145   -0.4125    0.0000 C   0  0  0  0  0  0  0  0  0  0  0  0
    0.7145   -1.2375    0.0000 S   0  0  0  0  0  0  0  0  0  0  0  0
    1.4289   -1.6500    0.0000 C   0  0  0  0  0  0  0  0  0  0  0  0
    0.0000    0.0000    0.0000 C   0  0  0  0  0  0  0  0  0  0  0  0
    0.0000    0.8250    0.0000 C   0  0  0  0  0  0  0  0  0  0  0  0
  1  2  1  0  0  0  0
  2  3  1  0  0  0  0
  3  4  1  0  0  0  0
  4  5  2  0  0  0  0
  4  6  1  0  0  0  0
  6  7  1  0  0  0  0
  6  8  1  0  0  0  0
  6  9  1  0  0  0  0
  9 10  1  0  0  0  0
 10 11  1  0  0  0  0
 11 12  1  0  0  0  0
 12 13  1  0  0  0  0
 13 14  1  0  0  0  0
 14 15  2  0  0  0  0
 15 16  1  0  0  0  0
 16 17  2  0  0  0  0
 17 18  1  0  0  0  0
 18 19  1  0  0  0  0
 17 20  1  0  0  0  0
 20 21  2  0  0  0  0
 14 21  1  0  0  0  0
M  END
> <ID>
CPD_1997

$$$$
CPD_2002
  Mrv1822 09091914012D          

 19 20  0  0  0  0            999 V2000
   -2.8579   -1.6500    0.0000 C   0  0  0  0  0  0  0  0  0  0  0  0
   -2.1434   -1.2375    0.0000 S   0  0  0  0  0  0  0  0  0  0  0  0
   -1.4289   -1.6500    0.0000 C   0  0  0  0  0  0  0  0  0  0  0  0
   -0.7145   -1.2375    0.0000 C   0  0  0  0  0  0  0  0  0  0  0  0
    0.0000   -1.6500    0.0000 C   0  0  0  0  0  0  0  0  0  0  0  0
    0.0000   -2.4750    0.0000 C   0  0  0  0  0  0  0  0  0  0  0  0
    0.7145   -2.8875    0.0000 O   0  0  0  0  0  0  0  0  0  0  0  0
    1.4289   -2.4750    0.0000 C   0  0  0  0  0  0  0  0  0  0  0  0
    2.1434   -2.8875    0.0000 C   0  0  0  0  0  0  0  0  0  0  0  0
    2.8579   -2.4750    0.0000 N   0  0  0  0  0  0  0  0  0  0  0  0
    3.5724   -2.8875    0.0000 C   0  0  0  0  0  0  0  0  0  0  0  0
    4.2868   -2.4750    0.0000 N   0  0  0  0  0  0  0  0  0  0  0  0
    5.0013   -2.8875    0.0000 C   0  0  0  0  0  0  0  0  0  0  0  0
    5.0013   -3.7125    0.0000 C   0  0  0  0  0  0  0  0  0  0  0  0
    5.7158   -4.1250    0.0000 N   0  0  0  0  0  0  0  0  0  0  0  0
    4.2868   -4.1250    0.0000 C   0  0  0  0  0  0  0  0  0  0  0  0
    3.5724   -3.7125    0.0000 N   0  0  0  0  0  0  0  0  0  0  0  0
   -0.7145   -2.8875    0.0000 C   0  0  0  0  0  0  0  0  0  0  0  0
   -1.4289   -2.4750    0.0000 C   0  0  0  0  0  0  0  0  0  0  0  0
  1  2  1  0  0  0  0
  2  3  1  0  0  0  0
  3  4  2  0  0  0  0
  4  5  1  0  0  0  0
  5  6  2  0  0  0  0
  6  7  1  0  0  0  0
  7  8  1  0  0  0  0
  8  9  1  0  0  0  0
  9 10  1  0  0  0  0
 10 11  1  0  0  0  0
 11 12  2  0  0  0  0
 12 13  1  0  0  0  0
 13 14  2  0  0  0  0
 14 15  1  0  0  0  0
 14 16  1  0  0  0  0
 16 17  2  0  0  0  0
 11 17  1  0  0  0  0
  6 18  1  0  0  0  0
 18 19  2  0  0  0  0
  3 19  1  0  0  0  0
M  END
> <ID>
CPD_2002

$$$$
CPD_2007
  Mrv1822 09091914012D          

 21 23  0  0  0  0            999 V2000
    0.6357   -2.8846    0.0000 C   0  0  0  0  0  0  0  0  0  0  0  0
    0.6357   -2.0596    0.0000 S   0  0  0  0  0  0  0  0  0  0  0  0
    1.3501   -1.6471    0.0000 C   0  0  0  0  0  0  0  0  0  0  0  0
    1.3501   -0.8221    0.0000 C   0  0  0  0  0  0  0  0  0  0  0  0
    2.0646   -0.4096    0.0000 C   0  0  0  0  0  0  0  0  0  0  0  0
    2.7791   -0.8221    0.0000 C   0  0  0  0  0  0  0  0  0  0  0  0
    3.4935   -0.4096    0.0000 O   0  0  0  0  0  0  0  0  0  0  0  0
    4.2080   -0.8221    0.0000 C   0  0  0  0  0  0  0  0  0  0  0  0
    4.9225   -0.4096    0.0000 C   0  0  0  0  0  0  0  0  0  0  0  0
    5.6370   -0.8221    0.0000 N   0  0  0  0  0  0  0  0  0  0  0  0
    6.3514   -0.4096    0.0000 C   0  0  0  0  0  0  0  0  0  0  0  0
    6.4377    0.4109    0.0000 C   0  0  0  0  0  0  0  0  0  0  0  0
    7.2446    0.5824    0.0000 N   0  0  0  0  0  0  0  0  0  0  0  0
    7.6571   -0.1320    0.0000 C   0  0  0  0  0  0  0  0  0  0  0  0
    8.4641   -0.3036    0.0000 C   0  0  0  0  0  0  0  0  0  0  0  0
    8.7190   -1.0882    0.0000 N   0  0  0  0  0  0  0  0  0  0  0  0
    8.1670   -1.7013    0.0000 C   0  0  0  0  0  0  0  0  0  0  0  0
    7.3600   -1.5298    0.0000 C   0  0  0  0  0  0  0  0  0  0  0  0
    7.1051   -0.7451    0.0000 N   0  0  0  0  0  0  0  0  0  0  0  0
    2.7791   -1.6471    0.0000 C   0  0  0  0  0  0  0  0  0  0  0  0
    2.0646   -2.0596    0.0000 C   0  0  0  0  0  0  0  0  0  0  0  0
  1  2  1  0  0  0  0
  2  3  1  0  0  0  0
  3  4  2  0  0  0  0
  4  5  1  0  0  0  0
  5  6  2  0  0  0  0
  6  7  1  0  0  0  0
  7  8  1  0  0  0  0
  8  9  1  0  0  0  0
  9 10  1  0  0  0  0
 10 11  1  0  0  0  0
 11 12  2  0  0  0  0
 12 13  1  0  0  0  0
 13 14  2  0  0  0  0
 14 15  1  0  0  0  0
 15 16  2  0  0  0  0
 16 17  1  0  0  0  0
 17 18  2  0  0  0  0
 18 19  1  0  0  0  0
 11 19  1  0  0  0  0
 14 19  1  0  0  0  0
  6 20  1  0  0  0  0
 20 21  2  0  0  0  0
  3 21  1  0  0  0  0
M  END
> <ID>
CPD_2007

$$$$
CPD_2012
  Mrv1822 09091914012D          

 19 21  0  0  0  0            999 V2000
    0.6538   -2.1269    0.0000 F   0  0  0  0  0  0  0  0  0  0  0  0
   -0.1712   -2.1269    0.0000 C   0  0  0  0  0  0  0  0  0  0  0  0
   -0.5837   -2.8414    0.0000 C   0  0  0  0  0  0  0  0  0  0  0  0
   -1.4087   -2.8414    0.0000 N   0  0  0  0  0  0  0  0  0  0  0  0
   -1.8212   -2.1269    0.0000 C   0  0  0  0  0  0  0  0  0  0  0  0
   -1.4087   -1.4124    0.0000 N   0  0  0  0  0  0  0  0  0  0  0  0
   -0.5837   -1.4124    0.0000 C   0  0  0  0  0  0  0  0  0  0  0  0
   -0.1712   -0.6979    0.0000 N   0  0  0  0  0  0  0  0  0  0  0  0
    0.6538   -0.6979    0.0000 C   0  0  0  0  0  0  0  0  0  0  0  0
    1.1387   -0.0305    0.0000 C   0  0  0  0  0  0  0  0  0  0  0  0
    0.8838    0.7541    0.0000 C   0  0  0  0  0  0  0  0  0  0  0  0
    0.6288    1.5387    0.0000 N   0  0  0  0  0  0  0  0  0  0  0  0
    1.9233   -0.2854    0.0000 C   0  0  0  0  0  0  0  0  0  0  0  0
    2.6378    0.1271    0.0000 C   0  0  0  0  0  0  0  0  0  0  0  0
    3.3523   -0.2854    0.0000 C   0  0  0  0  0  0  0  0  0  0  0  0
    3.3523   -1.1104    0.0000 C   0  0  0  0  0  0  0  0  0  0  0  0
    2.6378   -1.5229    0.0000 C   0  0  0  0  0  0  0  0  0  0  0  0
    1.9233   -1.1104    0.0000 C   0  0  0  0  0  0  0  0  0  0  0  0
    1.1387   -1.3654    0.0000 C   0  0  0  0  0  0  0  0  0  0  0  0
  1  2  1  0  0  0  0
  2  3  2  0  0  0  0
  3  4  1  0  0  0  0
  4  5  2  0  0  0  0
  5  6  1  0  0  0  0
  6  7  2  0  0  0  0
  2  7  1  0  0  0  0
  7  8  1  0  0  0  0
  8  9  1  0  0  0  0
  9 10  2  0  0  0  0
 10 11  1  0  0  0  0
 11 12  3  0  0  0  0
 10 13  1  0  0  0  0
 13 14  2  0  0  0  0
 14 15  1  0  0  0  0
 15 16  2  0  0  0  0
 16 17  1  0  0  0  0
 17 18  2  0  0  0  0
 13 18  1  0  0  0  0
 18 19  1  0  0  0  0
  9 19  1  0  0  0  0
M  END
> <ID>
CPD_2012

$$$$
CPD_2017
  Mrv1822 09091914012D          

 20 22  0  0  0  0            999 V2000
   -2.7632   -1.0571    0.0000 O   0  0  0  0  0  0  0  0  0  0  0  0
   -1.9562   -0.8856    0.0000 C   0  0  0  0  0  0  0  0  0  0  0  0
   -1.7013   -0.1009    0.0000 O   0  0  0  0  0  0  0  0  0  0  0  0
   -1.4042   -1.4986    0.0000 C   0  0  0  0  0  0  0  0  0  0  0  0
   -0.5837   -1.4124    0.0000 C   0  0  0  0  0  0  0  0  0  0  0  0
   -0.1712   -0.6979    0.0000 N   0  0  0  0  0  0  0  0  0  0  0  0
    0.6538   -0.6979    0.0000 C   0  0  0  0  0  0  0  0  0  0  0  0
    1.1387   -0.0305    0.0000 C   0  0  0  0  0  0  0  0  0  0  0  0
    0.8838    0.7541    0.0000 C   0  0  0  0  0  0  0  0  0  0  0  0
    0.6288    1.5387    0.0000 N   0  0  0  0  0  0  0  0  0  0  0  0
    1.9233   -0.2854    0.0000 C   0  0  0  0  0  0  0  0  0  0  0  0
    2.6378    0.1271    0.0000 C   0  0  0  0  0  0  0  0  0  0  0  0
    3.3523   -0.2854    0.0000 C   0  0  0  0  0  0  0  0  0  0  0  0
    3.3523   -1.1104    0.0000 C   0  0  0  0  0  0  0  0  0  0  0  0
    2.6378   -1.5229    0.0000 C   0  0  0  0  0  0  0  0  0  0  0  0
    1.9233   -1.1104    0.0000 C   0  0  0  0  0  0  0  0  0  0  0  0
    1.1387   -1.3654    0.0000 C   0  0  0  0  0  0  0  0  0  0  0  0
   -0.2481   -2.1661    0.0000 C   0  0  0  0  0  0  0  0  0  0  0  0
   -0.8612   -2.7181    0.0000 C   0  0  0  0  0  0  0  0  0  0  0  0
   -1.5757   -2.3056    0.0000 O   0  0  0  0  0  0  0  0  0  0  0  0
  1  2  1  0  0  0  0
  2  3  2  0  0  0  0
  2  4  1  0  0  0  0
  4  5  2  0  0  0  0
  5  6  1  0  0  0  0
  6  7  1  0  0  0  0
  7  8  2  0  0  0  0
  8  9  1  0  0  0  0
  9 10  3  0  0  0  0
  8 11  1  0  0  0  0
 11 12  2  0  0  0  0
 12 13  1  0  0  0  0
 13 14  2  0  0  0  0
 14 15  1  0  0  0  0
 15 16  2  0  0  0  0
 11 16  1  0  0  0  0
 16 17  1  0  0  0  0
  7 17  1  0  0  0  0
  5 18  1  0  0  0  0
 18 19  2  0  0  0  0
 19 20  1  0  0  0  0
  4 20  1  0  0  0  0
M  END
> <ID>
CPD_2017

$$$$
CPD_2022
  Mrv1822 09091914012D          

 25 28  0  0  0  0            999 V2000
    0.6538   -2.1269    0.0000 O   0  0  0  0  0  0  0  0  0  0  0  0
   -0.1712   -2.1269    0.0000 C   0  0  0  0  0  0  0  0  0  0  0  0
   -0.5837   -2.8414    0.0000 C   0  0  0  0  0  0  0  0  0  0  0  0
   -1.4087   -2.8414    0.0000 C   0  0  0  0  0  0  0  0  0  0  0  0
   -1.8212   -2.1269    0.0000 C   0  0  0  0  0  0  0  0  0  0  0  0
   -1.4087   -1.4124    0.0000 C   0  0  0  0  0  0  0  0  0  0  0  0
   -0.5837   -1.4124    0.0000 C   0  0  0  0  0  0  0  0  0  0  0  0
   -0.1712   -0.6979    0.0000 N   0  0  0  0  0  0  0  0  0  0  0  0
    0.6538   -0.6979    0.0000 C   0  0  0  0  0  0  0  0  0  0  0  0
    1.1387   -0.0305    0.0000 C   0  0  0  0  0  0  0  0  0  0  0  0
    0.8838    0.7541    0.0000 C   0  0  0  0  0  0  0  0  0  0  0  0
    0.6288    1.5387    0.0000 N   0  0  0  0  0  0  0  0  0  0  0  0
    1.9233   -0.2854    0.0000 C   0  0  0  0  0  0  0  0  0  0  0  0
    2.6378    0.1271    0.0000 C   0  0  0  0  0  0  0  0  0  0  0  0
    3.3523   -0.2854    0.0000 C   0  0  0  0  0  0  0  0  0  0  0  0
    3.3523   -1.1104    0.0000 C   0  0  0  0  0  0  0  0  0  0  0  0
    2.6378   -1.5229    0.0000 C   0  0  0  0  0  0  0  0  0  0  0  0
    1.9233   -1.1104    0.0000 C   0  0  0  0  0  0  0  0  0  0  0  0
    1.1387   -1.3654    0.0000 C   0  0  0  0  0  0  0  0  0  0  0  0
   -1.8212   -3.5558    0.0000 C   0  0  0  0  0  0  0  0  0  0  0  0
   -1.4087   -4.2703    0.0000 C   0  0  0  0  0  0  0  0  0  0  0  0
   -1.8212   -4.9848    0.0000 C   0  0  0  0  0  0  0  0  0  0  0  0
   -2.6462   -4.9848    0.0000 C   0  0  0  0  0  0  0  0  0  0  0  0
   -3.0587   -4.2703    0.0000 C   0  0  0  0  0  0  0  0  0  0  0  0
   -2.6462   -3.5558    0.0000 C   0  0  0  0  0  0  0  0  0  0  0  0
  1  2  1  0  0  0  0
  2  3  2  0  0  0  0
  3  4  1  0  0  0  0
  4  5  2  0  0  0  0
  5  6  1  0  0  0  0
  6  7  2  0  0  0  0
  2  7  1  0  0  0  0
  7  8  1  0  0  0  0
  8  9  1  0  0  0  0
  9 10  2  0  0  0  0
 10 11  1  0  0  0  0
 11 12  3  0  0  0  0
 10 13  1  0  0  0  0
 13 14  2  0  0  0  0
 14 15  1  0  0  0  0
 15 16  2  0  0  0  0
 16 17  1  0  0  0  0
 17 18  2  0  0  0  0
 13 18  1  0  0  0  0
 18 19  1  0  0  0  0
  9 19  1  0  0  0  0
  4 20  1  0  0  0  0
 20 21  2  0  0  0  0
 21 22  1  0  0  0  0
 22 23  2  0  0  0  0
 23 24  1  0  0  0  0
 24 25  2  0  0  0  0
 20 25  1  0  0  0  0
M  END
> <ID>
CPD_2022

$$$$
CPD_2027
  Mrv1822 09091914012D          

 34 37  0  0  0  0            999 V2000
   -5.5337    2.8744    0.0000 O   0  0  0  0  0  0  0  0  0  0  0  0
   -5.1212    2.1599    0.0000 C   0  0  0  0  0  0  0  0  0  0  0  0
   -4.2962    2.1599    0.0000 C   0  0  0  0  0  0  0  0  0  0  0  0
   -3.8837    1.4455    0.0000 N   0  0  0  0  0  0  0  0  0  0  0  0
   -3.0587    1.4455    0.0000 C   0  0  0  0  0  0  0  0  0  0  0  0
   -2.6462    2.1599    0.0000 O   0  0  0  0  0  0  0  0  0  0  0  0
   -2.6462    0.7310    0.0000 C   0  0  0  0  0  0  0  0  0  0  0  0
   -1.8212    0.7310    0.0000 C   0  0  0  0  0  0  0  0  0  0  0  0
   -1.4087    0.0165    0.0000 C   0  0  0  0  0  0  0  0  0  0  0  0
   -1.8212   -0.6979    0.0000 N   0  0  0  0  0  0  0  0  0  0  0  0
   -2.6462   -0.6979    0.0000 C   0  0  0  0  0  0  0  0  0  0  0  0
   -3.0587    0.0165    0.0000 C   0  0  0  0  0  0  0  0  0  0  0  0
   -1.4087   -1.4124    0.0000 C   0  0  0  0  0  0  0  0  0  0  0  0
   -0.5837   -1.4124    0.0000 C   0  0  0  0  0  0  0  0  0  0  0  0
   -0.1712   -0.6979    0.0000 N   0  0  0  0  0  0  0  0  0  0  0  0
    0.6538   -0.6979    0.0000 C   0  0  0  0  0  0  0  0  0  0  0  0
    1.1387   -0.0305    0.0000 C   0  0  0  0  0  0  0  0  0  0  0  0
    0.8838    0.7541    0.0000 C   0  0  0  0  0  0  0  0  0  0  0  0
    0.6288    1.5387    0.0000 N   0  0  0  0  0  0  0  0  0  0  0  0
    1.9233   -0.2854    0.0000 C   0  0  0  0  0  0  0  0  0  0  0  0
    2.6378    0.1271    0.0000 C   0  0  0  0  0  0  0  0  0  0  0  0
    3.3523   -0.2854    0.0000 C   0  0  0  0  0  0  0  0  0  0  0  0
    3.3523   -1.1104    0.0000 C   0  0  0  0  0  0  0  0  0  0  0  0
    2.6378   -1.5229    0.0000 C   0  0  0  0  0  0  0  0  0  0  0  0
    1.9233   -1.1104    0.0000 C   0  0  0  0  0  0  0  0  0  0  0  0
    1.1387   -1.3654    0.0000 C   0  0  0  0  0  0  0  0  0  0  0  0
   -0.1712   -2.1269    0.0000 C   0  0  0  0  0  0  0  0  0  0  0  0
   -0.5837   -2.8414    0.0000 C   0  0  0  0  0  0  0  0  0  0  0  0
   -1.4087   -2.8414    0.0000 C   0  0  0  0  0  0  0  0  0  0  0  0
   -1.8212   -2.1269    0.0000 N   0  0  0  0  0  0  0  0  0  0  0  0
   -0.1712   -3.5558    0.0000 C   0  0  0  0  0  0  0  0  0  0  0  0
    0.2413   -4.2703    0.0000 F   0  0  0  0  0  0  0  0  0  0  0  0
   -0.8857   -3.9683    0.0000 F   0  0  0  0  0  0  0  0  0  0  0  0
    0.5433   -3.1433    0.0000 F   0  0  0  0  0  0  0  0  0  0  0  0
  1  2  1  0  0  0  0
  2  3  1  0  0  0  0
  3  4  1  0  0  0  0
  4  5  1  0  0  0  0
  5  6  2  0  0  0  0
  5  7  1  0  0  0  0
  7  8  1  0  0  0  0
  8  9  1  0  0  0  0
  9 10  1  0  0  0  0
 10 11  1  0  0  0  0
 11 12  1  0  0  0  0
  7 12  1  0  0  0  0
 10 13  1  0  0  0  0
 13 14  2  0  0  0  0
 14 15  1  0  0  0  0
 15 16  1  0  0  0  0
 16 17  2  0  0  0  0
 17 18  1  0  0  0  0
 18 19  3  0  0  0  0
 17 20  1  0  0  0  0
 20 21  2  0  0  0  0
 21 22  1  0  0  0  0
 22 23  2  0  0  0  0
 23 24  1  0  0  0  0
 24 25  2  0  0  0  0
 20 25  1  0  0  0  0
 25 26  1  0  0  0  0
 16 26  1  0  0  0  0
 14 27  1  0  0  0  0
 27 28  2  0  0  0  0
 28 29  1  0  0  0  0
 29 30  2  0  0  0  0
 13 30  1  0  0  0  0
 28 31  1  0  0  0  0
 31 32  1  0  0  0  0
 31 33  1  0  0  0  0
 31 34  1  0  0  0  0
M  END
> <ID>
CPD_2027

$$$$
CPD_2032
  Mrv1822 09091914012D          

 36 39  0  0  0  0            999 V2000
    0.7145   -6.1875    0.0000 C   0  0  0  0  0  0  0  0  0  0  0  0
    0.7145   -5.3625    0.0000 O   0  0  0  0  0  0  0  0  0  0  0  0
    0.0000   -4.9500    0.0000 C   0  0  0  0  0  0  0  0  0  0  0  0
   -0.7145   -5.3625    0.0000 O   0  0  0  0  0  0  0  0  0  0  0  0
    0.0000   -4.1250    0.0000 C   0  0  0  0  0  0  0  0  0  0  0  0
   -0.7145   -3.7125    0.0000 C   0  0  0  0  0  0  0  0  0  0  0  0
   -0.7145   -2.8875    0.0000 C   0  0  0  0  0  0  0  0  0  0  0  0
   -1.4289   -2.4750    0.0000 F   0  0  0  0  0  0  0  0  0  0  0  0
    0.0000   -2.4750    0.0000 C   0  0  0  0  0  0  0  0  0  0  0  0
    0.0000   -1.6500    0.0000 N   0  0  0  0  0  0  0  0  0  0  0  0
    0.7145   -1.2375    0.0000 C   0  0  0  0  0  0  0  0  0  0  0  0
    0.7145   -0.4125    0.0000 C   0  0  0  0  0  0  0  0  0  0  0  0
    0.0000    0.0000    0.0000 O   0  0  0  0  0  0  0  0  0  0  0  0
    0.0000    0.8250    0.0000 C   0  0  0  0  0  0  0  0  0  0  0  0
   -0.7145    1.2375    0.0000 C   0  0  0  0  0  0  0  0  0  0  0  0
    0.7145    1.2375    0.0000 C   0  0  0  0  0  0  0  0  0  0  0  0
    0.7145    2.0625    0.0000 O   0  0  0  0  0  0  0  0  0  0  0  0
    1.4289    0.8250    0.0000 O   0  0  0  0  0  0  0  0  0  0  0  0
    1.4289    0.0000    0.0000 C   0  0  0  0  0  0  0  0  0  0  0  0
    2.1434   -0.4125    0.0000 C   0  0  0  0  0  0  0  0  0  0  0  0
    2.8579    0.0000    0.0000 O   0  0  0  0  0  0  0  0  0  0  0  0
    3.5724   -0.4125    0.0000 C   0  0  0  0  0  0  0  0  0  0  0  0
    4.2868   -0.0000    0.0000 O   0  0  0  0  0  0  0  0  0  0  0  0
    3.5724   -1.2375    0.0000 C   0  0  0  0  0  0  0  0  0  0  0  0
    2.8579   -1.6500    0.0000 C   0  0  0  0  0  0  0  0  0  0  0  0
    2.8579   -2.4750    0.0000 C   0  0  0  0  0  0  0  0  0  0  0  0
    3.5724   -2.8875    0.0000 C   0  0  0  0  0  0  0  0  0  0  0  0
    3.5724   -3.7125    0.0000 C   0  0  0  0  0  0  0  0  0  0  0  0
    2.8579   -4.1250    0.0000 C   0  0  0  0  0  0  0  0  0  0  0  0
    2.1434   -3.7125    0.0000 C   0  0  0  0  0  0  0  0  0  0  0  0
    2.1434   -2.8875    0.0000 C   0  0  0  0  0  0  0  0  0  0  0  0
    2.1434   -1.2375    0.0000 C   0  0  0  0  0  0  0  0  0  0  0  0
    1.4289   -1.6500    0.0000 C   0  0  0  0  0  0  0  0  0  0  0  0
    0.7145   -2.8875    0.0000 C   0  0  0  0  0  0  0  0  0  0  0  0
    1.4289   -2.4750    0.0000 F   0  0  0  0  0  0  0  0  0  0  0  0
    0.7145   -3.7125    0.0000 C   0  0  0  0  0  0  0  0  0  0  0  0
  1  2  1  0  0  0  0
  2  3  1  0  0  0  0
  3  4  2  0  0  0  0
  3  5  1  0  0  0  0
  5  6  2  0  0  0  0
  6  7  1  0  0  0  0
  7  8  1  0  0  0  0
  7  9  2  0  0  0  0
  9 10  1  0  0  0  0
 10 11  1  0  0  0  0
 11 12  2  0  0  0  0
 12 13  1  0  0  0  0
 13 14  1  0  0  0  0
 14 15  1  0  0  0  0
 14 16  1  0  0  0  0
 16 17  1  0  0  0  0
 16 18  2  0  0  0  0
 12 19  1  0  0  0  0
 19 20  2  0  0  0  0
 20 21  1  0  0  0  0
 21 22  1  0  0  0  0
 22 23  2  0  0  0  0
 22 24  1  0  0  0  0
 24 25  2  0  0  0  0
 25 26  1  0  0  0  0
 26 27  2  0  0  0  0
 27 28  1  0  0  0  0
 28 29  2  0  0  0  0
 29 30  1  0  0  0  0
 30 31  2  0  0  0  0
 26 31  1  0  0  0  0
 25 32  1  0  0  0  0
 20 32  1  0  0  0  0
 32 33  2  0  0  0  0
 11 33  1  0  0  0  0
  9 34  1  0  0  0  0
 34 35  1  0  0  0  0
 34 36  2  0  0  0  0
  5 36  1  0  0  0  0
M  END
> <ID>
CPD_2032

$$$$
CPD_2037
  Mrv1822 09091914012D          

 22 23  0  0  0  0            999 V2000
    0.7145   -0.4125    0.0000 C   0  0  0  0  0  0  0  0  0  0  0  0
    0.7145   -1.2375    0.0000 O   0  0  0  0  0  0  0  0  0  0  0  0
    1.4289   -1.6500    0.0000 C   0  0  0  0  0  0  0  0  0  0  0  0
    2.1434   -1.2375    0.0000 O   0  0  0  0  0  0  0  0  0  0  0  0
    1.4289   -2.4750    0.0000 C   0  0  0  0  0  0  0  0  0  0  0  0
    2.1434   -2.8875    0.0000 C   0  0  0  0  0  0  0  0  0  0  0  0
    2.1434   -3.7125    0.0000 C   0  0  0  0  0  0  0  0  0  0  0  0
    2.8579   -4.1250    0.0000 F   0  0  0  0  0  0  0  0  0  0  0  0
    1.4289   -4.1250    0.0000 C   0  0  0  0  0  0  0  0  0  0  0  0
    1.4289   -4.9500    0.0000 N   0  0  0  0  0  0  0  0  0  0  0  0
    2.1434   -5.3625    0.0000 C   0  0  0  0  0  0  0  0  0  0  0  0
    2.1434   -6.1875    0.0000 C   0  0  0  0  0  0  0  0  0  0  0  0
    2.8579   -6.6000    0.0000 C   0  0  0  0  0  0  0  0  0  0  0  0
    3.5724   -6.1875    0.0000 Cl  0  0  0  0  0  0  0  0  0  0  0  0
    2.8579   -7.4250    0.0000 C   0  0  0  0  0  0  0  0  0  0  0  0
    2.1434   -7.8375    0.0000 C   0  0  0  0  0  0  0  0  0  0  0  0
    2.1434   -8.6625    0.0000 Br  0  0  0  0  0  0  0  0  0  0  0  0
    1.4289   -7.4250    0.0000 C   0  0  0  0  0  0  0  0  0  0  0  0
    1.4289   -6.6000    0.0000 C   0  0  0  0  0  0  0  0  0  0  0  0
    0.7145   -3.7125    0.0000 C   0  0  0  0  0  0  0  0  0  0  0  0
    0.0000   -4.1250    0.0000 F   0  0  0  0  0  0  0  0  0  0  0  0
    0.7145   -2.8875    0.0000 C   0  0  0  0  0  0  0  0  0  0  0  0
  1  2  1  0  0  0  0
  2  3  1  0  0  0  0
  3  4  2  0  0  0  0
  3  5  1  0  0  0  0
  5  6  2  0  0  0  0
  6  7  1  0  0  0  0
  7  8  1  0  0  0  0
  7  9  2  0  0  0  0
  9 10  1  0  0  0  0
 10 11  1  0  0  0  0
 11 12  1  0  0  0  0
 12 13  2  0  0  0  0
 13 14  1  0  0  0  0
 13 15  1  0  0  0  0
 15 16  2  0  0  0  0
 16 17  1  0  0  0  0
 16 18  1  0  0  0  0
 18 19  2  0  0  0  0
 12 19  1  0  0  0  0
  9 20  1  0  0  0  0
 20 21  1  0  0  0  0
 20 22  2  0  0  0  0
  5 22  1  0  0  0  0
M  END
> <ID>
CPD_2037

$$$$
CPD_2042
  Mrv1822 09091914012D          

 29 31  0  0  0  0            999 V2000
    2.1434   -3.7125    0.0000 O   0  0  0  0  0  0  0  0  0  0  0  0
    2.1434   -2.8875    0.0000 C   0  0  0  0  0  0  0  0  0  0  0  0
    1.4289   -2.4750    0.0000 C   0  0  0  0  0  0  0  0  0  0  0  0
    0.7145   -2.8875    0.0000 N   0  0  0  0  0  0  0  0  0  0  0  0
    0.0000   -2.4750    0.0000 C   0  0  0  0  0  0  0  0  0  0  0  0
   -0.7145   -2.8875    0.0000 C   0  0  0  0  0  0  0  0  0  0  0  0
   -0.7145   -3.7125    0.0000 O   0  0  0  0  0  0  0  0  0  0  0  0
   -1.4289   -4.1250    0.0000 C   0  0  0  0  0  0  0  0  0  0  0  0
   -1.4289   -4.9500    0.0000 C   0  0  0  0  0  0  0  0  0  0  0  0
   -1.4289   -5.7750    0.0000 N   0  0  0  0  0  0  0  0  0  0  0  0
   -1.4289   -2.4750    0.0000 C   0  0  0  0  0  0  0  0  0  0  0  0
   -1.4289   -1.6500    0.0000 C   0  0  0  0  0  0  0  0  0  0  0  0
   -0.7145   -1.2375    0.0000 C   0  0  0  0  0  0  0  0  0  0  0  0
    0.0000   -1.6500    0.0000 C   0  0  0  0  0  0  0  0  0  0  0  0
    2.8579   -2.4750    0.0000 N   0  0  0  0  0  0  0  0  0  0  0  0
    3.5724   -2.8875    0.0000 C   0  0  0  0  0  0  0  0  0  0  0  0
    4.2868   -2.4750    0.0000 C   0  0  0  0  0  0  0  0  0  0  0  0
    5.0013   -2.8875    0.0000 C   0  0  0  0  0  0  0  0  0  0  0  0
    5.0013   -3.7125    0.0000 C   0  0  0  0  0  0  0  0  0  0  0  0
    5.7158   -4.1250    0.0000 N   0  0  0  0  0  0  0  0  0  0  0  0
    6.4302   -3.7125    0.0000 C   0  0  0  0  0  0  0  0  0  0  0  0
    6.4302   -2.8875    0.0000 O   0  0  0  0  0  0  0  0  0  0  0  0
    7.1447   -4.1250    0.0000 C   0  0  0  0  0  0  0  0  0  0  0  0
    7.8984   -3.7894    0.0000 C   0  0  0  0  0  0  0  0  0  0  0  0
    8.4504   -4.4025    0.0000 C   0  0  0  0  0  0  0  0  0  0  0  0
    8.0379   -5.1170    0.0000 C   0  0  0  0  0  0  0  0  0  0  0  0
    7.2309   -4.9455    0.0000 O   0  0  0  0  0  0  0  0  0  0  0  0
    4.2868   -4.1250    0.0000 C   0  0  0  0  0  0  0  0  0  0  0  0
    3.5724   -3.7125    0.0000 C   0  0  0  0  0  0  0  0  0  0  0  0
  1  2  2  0  0  0  0
  2  3  1  0  0  0  0
  3  4  1  0  0  0  0
  4  5  1  0  0  0  0
  5  6  2  0  0  0  0
  6  7  1  0  0  0  0
  7  8  1  0  0  0  0
  8  9  1  0  0  0  0
  9 10  3  0  0  0  0
  6 11  1  0  0  0  0
 11 12  2  0  0  0  0
 12 13  1  0  0  0  0
 13 14  2  0  0  0  0
  5 14  1  0  0  0  0
  2 15  1  0  0  0  0
 15 16  1  0  0  0  0
 16 17  2  0  0  0  0
 17 18  1  0  0  0  0
 18 19  2  0  0  0  0
 19 20  1  0  0  0  0
 20 21  1  0  0  0  0
 21 22  2  0  0  0  0
 21 23  1  0  0  0  0
 23 24  2  0  0  0  0
 24 25  1  0  0  0  0
 25 26  2  0  0  0  0
 26 27  1  0  0  0  0
 23 27  1  0  0  0  0
 19 28  1  0  0  0  0
 28 29  2  0  0  0  0
 16 29  1  0  0  0  0
M  END
> <ID>
CPD_2042

$$$$
CPD_2047
  Mrv1822 09091914012D          

 37 40  0  0  0  0            999 V2000
   -7.6419   -0.8866    0.0000 F   0  0  0  0  0  0  0  0  0  0  0  0
   -8.4669   -0.8866    0.0000 C   0  0  0  0  0  0  0  0  0  0  0  0
   -9.2919   -0.8866    0.0000 F   0  0  0  0  0  0  0  0  0  0  0  0
   -8.4669   -1.7116    0.0000 N   0  0  0  0  0  0  0  0  0  0  0  0
   -7.7525   -2.1241    0.0000 C   0  0  0  0  0  0  0  0  0  0  0  0
   -7.7525   -2.9491    0.0000 C   0  0  0  0  0  0  0  0  0  0  0  0
   -8.4669   -3.3616    0.0000 O   0  0  0  0  0  0  0  0  0  0  0  0
   -7.0380   -3.3616    0.0000 N   0  0  0  0  0  0  0  0  0  0  0  0
   -7.0380   -4.1866    0.0000 C   0  0  0  0  0  0  0  0  0  0  0  0
   -6.3235   -4.5991    0.0000 C   0  0  0  0  0  0  0  0  0  0  0  0
   -6.3235   -5.4241    0.0000 C   0  0  0  0  0  0  0  0  0  0  0  0
   -7.0380   -5.8366    0.0000 C   0  0  0  0  0  0  0  0  0  0  0  0
   -7.0380   -6.6616    0.0000 N   0  0  0  0  0  0  0  0  0  0  0  0
   -7.7525   -7.0741    0.0000 C   0  0  0  0  0  0  0  0  0  0  0  0
   -8.4669   -6.6616    0.0000 O   0  0  0  0  0  0  0  0  0  0  0  0
   -7.7525   -7.8991    0.0000 C   0  0  0  0  0  0  0  0  0  0  0  0
   -7.0850   -8.3840    0.0000 C   0  0  0  0  0  0  0  0  0  0  0  0
   -7.3400   -9.1687    0.0000 C   0  0  0  0  0  0  0  0  0  0  0  0
   -8.1650   -9.1687    0.0000 C   0  0  0  0  0  0  0  0  0  0  0  0
   -8.4199   -8.3840    0.0000 O   0  0  0  0  0  0  0  0  0  0  0  0
   -7.7525   -5.4241    0.0000 C   0  0  0  0  0  0  0  0  0  0  0  0
   -7.7525   -4.5991    0.0000 C   0  0  0  0  0  0  0  0  0  0  0  0
   -8.4669   -0.0616    0.0000 C   0  0  0  0  0  0  0  0  0  0  0  0
   -7.7525    0.3509    0.0000 O   0  0  0  0  0  0  0  0  0  0  0  0
   -9.1814    0.3509    0.0000 C   0  0  0  0  0  0  0  0  0  0  0  0
   -9.8959   -0.0616    0.0000 C   0  0  0  0  0  0  0  0  0  0  0  0
  -10.6104    0.3509    0.0000 C   0  0  0  0  0  0  0  0  0  0  0  0
  -10.6104    1.1759    0.0000 C   0  0  0  0  0  0  0  0  0  0  0  0
   -9.8959    1.5884    0.0000 N   0  0  0  0  0  0  0  0  0  0  0  0
   -9.8959    2.4134    0.0000 C   0  0  0  0  0  0  0  0  0  0  0  0
  -10.6104    2.8259    0.0000 C   0  0  0  0  0  0  0  0  0  0  0  0
  -11.3248    2.4134    0.0000 C   0  0  0  0  0  0  0  0  0  0  0  0
  -12.0393    2.8259    0.0000 C   0  0  0  0  0  0  0  0  0  0  0  0
  -12.0393    3.6509    0.0000 C   0  0  0  0  0  0  0  0  0  0  0  0
  -11.3248    4.0634    0.0000 C   0  0  0  0  0  0  0  0  0  0  0  0
  -10.6104    3.6509    0.0000 C   0  0  0  0  0  0  0  0  0  0  0  0
   -9.1814    1.1759    0.0000 C   0  0  0  0  0  0  0  0  0  0  0  0
  1  2  1  0  0  0  0
  2  3  1  0  0  0  0
  2  4  1  0  0  0  0
  4  5  1  0  0  0  0
  5  6  1  0  0  0  0
  6  7  2  0  0  0  0
  6  8  1  0  0  0  0
  8  9  1  0  0  0  0
  9 10  2  0  0  0  0
 10 11  1  0  0  0  0
 11 12  2  0  0  0  0
 12 13  1  0  0  0  0
 13 14  1  0  0  0  0
 14 15  2  0  0  0  0
 14 16  1  0  0  0  0
 16 17  2  0  0  0  0
 17 18  1  0  0  0  0
 18 19  2  0  0  0  0
 19 20  1  0  0  0  0
 16 20  1  0  0  0  0
 12 21  1  0  0  0  0
 21 22  2  0  0  0  0
  9 22  1  0  0  0  0
  2 23  1  0  0  0  0
 23 24  2  0  0  0  0
 23 25  1  0  0  0  0
 25 26  1  0  0  0  0
 26 27  1  0  0  0  0
 27 28  1  0  0  0  0
 28 29  1  0  0  0  0
 29 30  1  0  0  0  0
 30 31  1  0  0  0  0
 31 32  2  0  0  0  0
 32 33  1  0  0  0  0
 33 34  2  0  0  0  0
 34 35  1  0  0  0  0
 35 36  2  0  0  0  0
 31 36  1  0  0  0  0
 29 37  1  0  0  0  0
 25 37  1  0  0  0  0
M  END
> <ID>
CPD_2047

$$$$
CPD_2052
  Mrv1822 09091914012D          

 28 30  0  0  0  0            999 V2000
   -0.7145   -5.3625    0.0000 Cl  0  0  0  0  0  0  0  0  0  0  0  0
    0.0000   -4.9500    0.0000 C   0  0  0  0  0  0  0  0  0  0  0  0
    0.0000   -4.1250    0.0000 C   0  0  0  0  0  0  0  0  0  0  0  0
   -0.7145   -3.7125    0.0000 Cl  0  0  0  0  0  0  0  0  0  0  0  0
    0.7145   -3.7125    0.0000 C   0  0  0  0  0  0  0  0  0  0  0  0
    1.4289   -4.1250    0.0000 C   0  0  0  0  0  0  0  0  0  0  0  0
    2.1434   -3.7125    0.0000 C   0  0  0  0  0  0  0  0  0  0  0  0
    2.8579   -4.1250    0.0000 N   0  0  0  0  0  0  0  0  0  0  0  0
    3.5724   -3.7125    0.0000 C   0  0  0  0  0  0  0  0  0  0  0  0
    4.2868   -4.1250    0.0000 C   0  0  0  0  0  0  0  0  0  0  0  0
    4.2868   -4.9500    0.0000 O   0  0  0  0  0  0  0  0  0  0  0  0
    5.0013   -3.7125    0.0000 N   0  0  0  0  0  0  0  0  0  0  0  0
    5.7158   -4.1250    0.0000 C   0  0  0  0  0  0  0  0  0  0  0  0
    6.4302   -3.7125    0.0000 C   0  0  0  0  0  0  0  0  0  0  0  0
    7.1447   -4.1250    0.0000 C   0  0  0  0  0  0  0  0  0  0  0  0
    7.1447   -4.9500    0.0000 C   0  0  0  0  0  0  0  0  0  0  0  0
    7.8592   -5.3625    0.0000 N   0  0  0  0  0  0  0  0  0  0  0  0
    8.5737   -4.9500    0.0000 C   0  0  0  0  0  0  0  0  0  0  0  0
    8.5737   -4.1250    0.0000 O   0  0  0  0  0  0  0  0  0  0  0  0
    9.2881   -5.3625    0.0000 C   0  0  0  0  0  0  0  0  0  0  0  0
   10.0418   -5.0269    0.0000 C   0  0  0  0  0  0  0  0  0  0  0  0
   10.5938   -5.6400    0.0000 C   0  0  0  0  0  0  0  0  0  0  0  0
   10.1813   -6.3545    0.0000 C   0  0  0  0  0  0  0  0  0  0  0  0
    9.3744   -6.1830    0.0000 O   0  0  0  0  0  0  0  0  0  0  0  0
    6.4302   -5.3625    0.0000 C   0  0  0  0  0  0  0  0  0  0  0  0
    5.7158   -4.9500    0.0000 C   0  0  0  0  0  0  0  0  0  0  0  0
    1.4289   -4.9500    0.0000 C   0  0  0  0  0  0  0  0  0  0  0  0
    0.7145   -5.3625    0.0000 C   0  0  0  0  0  0  0  0  0  0  0  0
  1  2  1  0  0  0  0
  2  3  2  0  0  0  0
  3  4  1  0  0  0  0
  3  5  1  0  0  0  0
  5  6  2  0  0  0  0
  6  7  1  0  0  0  0
  7  8  1  0  0  0  0
  8  9  1  0  0  0  0
  9 10  1  0  0  0  0
 10 11  2  0  0  0  0
 10 12  1  0  0  0  0
 12 13  1  0  0  0  0
 13 14  2  0  0  0  0
 14 15  1  0  0  0  0
 15 16  2  0  0  0  0
 16 17  1  0  0  0  0
 17 18  1  0  0  0  0
 18 19  2  0  0  0  0
 18 20  1  0  0  0  0
 20 21  2  0  0  0  0
 21 22  1  0  0  0  0
 22 23  2  0  0  0  0
 23 24  1  0  0  0  0
 20 24  1  0  0  0  0
 16 25  1  0  0  0  0
 25 26  2  0  0  0  0
 13 26  1  0  0  0  0
  6 27  1  0  0  0  0
 27 28  2  0  0  0  0
  2 28  1  0  0  0  0
M  END
> <ID>
CPD_2052

$$$$
CPD_2057
  Mrv1822 09091914012D          

 37 41  0  0  0  0            999 V2000
    7.5006    3.1324    0.0000 C   0  0  0  0  0  0  0  0  0  0  0  0
    6.7160    2.8774    0.0000 O   0  0  0  0  0  0  0  0  0  0  0  0
    6.5445    2.0705    0.0000 C   0  0  0  0  0  0  0  0  0  0  0  0
    5.7599    1.8155    0.0000 O   0  0  0  0  0  0  0  0  0  0  0  0
    7.1576    1.5184    0.0000 C   0  0  0  0  0  0  0  0  0  0  0  0
    7.0714    0.6979    0.0000 C   0  0  0  0  0  0  0  0  0  0  0  0
    6.3569    0.2854    0.0000 N   0  0  0  0  0  0  0  0  0  0  0  0
    5.6424    0.6979    0.0000 C   0  0  0  0  0  0  0  0  0  0  0  0
    5.6424    1.5229    0.0000 C   0  0  0  0  0  0  0  0  0  0  0  0
    4.9279    1.9354    0.0000 C   0  0  0  0  0  0  0  0  0  0  0  0
    4.9279    2.7604    0.0000 F   0  0  0  0  0  0  0  0  0  0  0  0
    4.2135    1.5229    0.0000 C   0  0  0  0  0  0  0  0  0  0  0  0
    4.2135    0.6979    0.0000 C   0  0  0  0  0  0  0  0  0  0  0  0
    3.4990    0.2854    0.0000 N   0  0  0  0  0  0  0  0  0  0  0  0
    2.7845    0.6979    0.0000 S   0  0  0  0  0  0  0  0  0  0  0  0
    2.3720   -0.0165    0.0000 O   0  0  0  0  0  0  0  0  0  0  0  0
    3.1970    1.4124    0.0000 O   0  0  0  0  0  0  0  0  0  0  0  0
    2.0701    1.1104    0.0000 C   0  0  0  0  0  0  0  0  0  0  0  0
    1.3556    0.6979    0.0000 C   0  0  0  0  0  0  0  0  0  0  0  0
    0.6411    1.1104    0.0000 N   0  0  0  0  0  0  0  0  0  0  0  0
   -0.1435    0.8555    0.0000 C   0  0  0  0  0  0  0  0  0  0  0  0
   -0.6284    1.5229    0.0000 N   0  0  0  0  0  0  0  0  0  0  0  0
   -0.1435    2.1904    0.0000 N   0  0  0  0  0  0  0  0  0  0  0  0
    0.6411    1.9354    0.0000 C   0  0  0  0  0  0  0  0  0  0  0  0
    1.3556    2.3479    0.0000 C   0  0  0  0  0  0  0  0  0  0  0  0
    2.0701    1.9354    0.0000 C   0  0  0  0  0  0  0  0  0  0  0  0
    4.9279    0.2854    0.0000 C   0  0  0  0  0  0  0  0  0  0  0  0
    7.8250    0.3624    0.0000 N   0  0  0  0  0  0  0  0  0  0  0  0
    8.3771    0.9755    0.0000 N   0  0  0  0  0  0  0  0  0  0  0  0
    7.9646    1.6900    0.0000 N   0  0  0  0  0  0  0  0  0  0  0  0
    7.9966   -0.4446    0.0000 C   0  0  0  0  0  0  0  0  0  0  0  0
    8.7812   -0.6995    0.0000 C   0  0  0  0  0  0  0  0  0  0  0  0
    9.3943   -0.1475    0.0000 F   0  0  0  0  0  0  0  0  0  0  0  0
    8.9527   -1.5065    0.0000 C   0  0  0  0  0  0  0  0  0  0  0  0
    8.3396   -2.0585    0.0000 C   0  0  0  0  0  0  0  0  0  0  0  0
    7.5550   -1.8036    0.0000 C   0  0  0  0  0  0  0  0  0  0  0  0
    7.3835   -0.9966    0.0000 C   0  0  0  0  0  0  0  0  0  0  0  0
  1  2  1  0  0  0  0
  2  3  1  0  0  0  0
  3  4  2  0  0  0  0
  3  5  1  0  0  0  0
  5  6  2  0  0  0  0
  6  7  1  0  0  0  0
  7  8  1  0  0  0  0
  8  9  2  0  0  0  0
  9 10  1  0  0  0  0
 10 11  1  0  0  0  0
 10 12  2  0  0  0  0
 12 13  1  0  0  0  0
 13 14  1  0  0  0  0
 14 15  1  0  0  0  0
 15 16  2  0  0  0  0
 15 17  2  0  0  0  0
 15 18  1  0  0  0  0
 18 19  2  0  0  0  0
 19 20  1  0  0  0  0
 20 21  1  0  0  0  0
 21 22  2  0  0  0  0
 22 23  1  0  0  0  0
 23 24  2  0  0  0  0
 20 24  1  0  0  0  0
 24 25  1  0  0  0  0
 25 26  2  0  0  0  0
 18 26  1  0  0  0  0
 13 27  2  0  0  0  0
  8 27  1  0  0  0  0
  6 28  1  0  0  0  0
 28 29  1  0  0  0  0
 29 30  2  0  0  0  0
  5 30  1  0  0  0  0
 28 31  1  0  0  0  0
 31 32  2  0  0  0  0
 32 33  1  0  0  0  0
 32 34  1  0  0  0  0
 34 35  2  0  0  0  0
 35 36  1  0  0  0  0
 36 37  2  0  0  0  0
 31 37  1  0  0  0  0
M  END
> <ID>
CPD_2057

$$$$
CPD_2062
  Mrv1822 09091914012D          

 30 33  0  0  1  0            999 V2000
    1.7440   -3.1970    0.0000 H   0  0  0  0  0  0  0  0  0  0  0  0
    2.0796   -3.9507    0.0000 C   0  0  2  0  0  0  0  0  0  0  0  0
    2.8642   -3.6957    0.0000 C   0  0  0  0  0  0  0  0  0  0  0  0
    3.3491   -4.3632    0.0000 N   0  0  0  0  0  0  0  0  0  0  0  0
    2.8642   -5.0306    0.0000 C   0  0  0  0  0  0  0  0  0  0  0  0
    2.0796   -4.7757    0.0000 C   0  0  2  0  0  0  0  0  0  0  0  0
    1.7440   -5.5293    0.0000 H   0  0  0  0  0  0  0  0  0  0  0  0
    1.3651   -4.3632    0.0000 C   0  0  1  0  0  0  0  0  0  0  0  0
    0.5401   -4.3632    0.0000 C   0  0  0  0  0  0  0  0  0  0  0  0
    0.1276   -3.6487    0.0000 N   0  0  0  0  0  0  0  0  0  0  0  0
   -0.6974   -3.6487    0.0000 C   0  0  0  0  0  0  0  0  0  0  0  0
   -1.1099   -4.3632    0.0000 C   0  0  0  0  0  0  0  0  0  0  0  0
   -1.9349   -4.3632    0.0000 C   0  0  0  0  0  0  0  0  0  0  0  0
   -2.3474   -3.6487    0.0000 C   0  0  0  0  0  0  0  0  0  0  0  0
   -1.9349   -2.9342    0.0000 C   0  0  0  0  0  0  0  0  0  0  0  0
   -1.1099   -2.9342    0.0000 C   0  0  0  0  0  0  0  0  0  0  0  0
   -0.6974   -2.2197    0.0000 C   0  0  0  0  0  0  0  0  0  0  0  0
   -1.1099   -1.5053    0.0000 N   0  0  0  0  0  0  0  0  0  0  0  0
   -1.9349   -1.5053    0.0000 C   0  0  0  0  0  0  0  0  0  0  0  0
   -2.3474   -0.7908    0.0000 C   0  0  0  0  0  0  0  0  0  0  0  0
   -1.9349   -0.0763    0.0000 C   0  0  0  0  0  0  0  0  0  0  0  0
   -1.1099   -0.0763    0.0000 C   0  0  0  0  0  0  0  0  0  0  0  0
   -0.6974   -0.7908    0.0000 C   0  0  0  0  0  0  0  0  0  0  0  0
    4.1741   -4.3632    0.0000 C   0  0  0  0  0  0  0  0  0  0  0  0
    4.5866   -3.6487    0.0000 O   0  0  0  0  0  0  0  0  0  0  0  0
    4.5866   -5.0776    0.0000 O   0  0  0  0  0  0  0  0  0  0  0  0
    5.4116   -5.0776    0.0000 C   0  0  0  0  0  0  0  0  0  0  0  0
    6.2366   -5.0776    0.0000 C   0  0  0  0  0  0  0  0  0  0  0  0
    5.4116   -5.9026    0.0000 C   0  0  0  0  0  0  0  0  0  0  0  0
    5.4116   -4.2526    0.0000 C   0  0  0  0  0  0  0  0  0  0  0  0
  2  1  1  1  0  0  0
  2  3  1  0  0  0  0
  3  4  1  0  0  0  0
  4  5  1  0  0  0  0
  6  5  1  0  0  0  0
  2  6  1  0  0  0  0
  6  7  1  1  0  0  0
  6  8  1  0  0  0  0
  2  8  1  0  0  0  0
  8  9  1  1  0  0  0
  9 10  1  0  0  0  0
 10 11  1  0  0  0  0
 11 12  2  0  0  0  0
 12 13  1  0  0  0  0
 13 14  2  0  0  0  0
 14 15  1  0  0  0  0
 15 16  2  0  0  0  0
 11 16  1  0  0  0  0
 16 17  1  0  0  0  0
 17 18  1  0  0  0  0
 18 19  1  0  0  0  0
 19 20  1  0  0  0  0
 20 21  1  0  0  0  0
 21 22  1  0  0  0  0
 22 23  1  0  0  0  0
 18 23  1  0  0  0  0
  4 24  1  0  0  0  0
 24 25  2  0  0  0  0
 24 26  1  0  0  0  0
 26 27  1  0  0  0  0
 27 28  1  0  0  0  0
 27 29  1  0  0  0  0
 27 30  1  0  0  0  0
M  END
> <ID>
CPD_2062

$$$$
CPD_2067
  Mrv1822 09091914012D          

 31 34  0  0  1  0            999 V2000
   -0.0974   -1.7851    0.0000 H   0  0  0  0  0  0  0  0  0  0  0  0
    0.2382   -2.5388    0.0000 C   0  0  2  0  0  0  0  0  0  0  0  0
    1.0228   -2.2839    0.0000 C   0  0  0  0  0  0  0  0  0  0  0  0
    1.5077   -2.9513    0.0000 N   0  0  0  0  0  0  0  0  0  0  0  0
    1.0228   -3.6188    0.0000 C   0  0  0  0  0  0  0  0  0  0  0  0
    0.2382   -3.3638    0.0000 C   0  0  2  0  0  0  0  0  0  0  0  0
   -0.0974   -4.1175    0.0000 H   0  0  0  0  0  0  0  0  0  0  0  0
   -0.4763   -2.9513    0.0000 C   0  0  1  0  0  0  0  0  0  0  0  0
   -1.3013   -2.9513    0.0000 C   0  0  0  0  0  0  0  0  0  0  0  0
   -1.7138   -2.2368    0.0000 N   0  0  0  0  0  0  0  0  0  0  0  0
   -2.5388   -2.2368    0.0000 C   0  0  0  0  0  0  0  0  0  0  0  0
   -2.9513   -2.9513    0.0000 C   0  0  0  0  0  0  0  0  0  0  0  0
   -3.7763   -2.9513    0.0000 C   0  0  0  0  0  0  0  0  0  0  0  0
   -4.1888   -2.2368    0.0000 C   0  0  0  0  0  0  0  0  0  0  0  0
   -3.7763   -1.5224    0.0000 C   0  0  0  0  0  0  0  0  0  0  0  0
   -4.1888   -0.8079    0.0000 O   0  0  0  0  0  0  0  0  0  0  0  0
   -3.7763   -0.0934    0.0000 C   0  0  0  0  0  0  0  0  0  0  0  0
   -2.9513   -1.5224    0.0000 C   0  0  0  0  0  0  0  0  0  0  0  0
   -2.5388   -3.6658    0.0000 C   0  0  0  0  0  0  0  0  0  0  0  0
   -1.7183   -3.7520    0.0000 N   0  0  0  0  0  0  0  0  0  0  0  0
   -1.5468   -4.5590    0.0000 N   0  0  0  0  0  0  0  0  0  0  0  0
   -2.2613   -4.9715    0.0000 C   0  0  0  0  0  0  0  0  0  0  0  0
   -2.3475   -5.7920    0.0000 N   0  0  0  0  0  0  0  0  0  0  0  0
   -2.8744   -4.4195    0.0000 C   0  0  0  0  0  0  0  0  0  0  0  0
    2.3327   -2.9513    0.0000 C   0  0  0  0  0  0  0  0  0  0  0  0
    2.7452   -2.2368    0.0000 O   0  0  0  0  0  0  0  0  0  0  0  0
    2.7452   -3.6658    0.0000 O   0  0  0  0  0  0  0  0  0  0  0  0
    3.5702   -3.6658    0.0000 C   0  0  0  0  0  0  0  0  0  0  0  0
    4.3952   -3.6658    0.0000 C   0  0  0  0  0  0  0  0  0  0  0  0
    3.5702   -4.4908    0.0000 C   0  0  0  0  0  0  0  0  0  0  0  0
    3.5702   -2.8408    0.0000 C   0  0  0  0  0  0  0  0  0  0  0  0
  2  1  1  1  0  0  0
  2  3  1  0  0  0  0
  3  4  1  0  0  0  0
  4  5  1  0  0  0  0
  6  5  1  0  0  0  0
  2  6  1  0  0  0  0
  6  7  1  1  0  0  0
  6  8  1  0  0  0  0
  2  8  1  0  0  0  0
  8  9  1  1  0  0  0
  9 10  1  0  0  0  0
 10 11  1  0  0  0  0
 11 12  2  0  0  0  0
 12 13  1  0  0  0  0
 13 14  2  0  0  0  0
 14 15  1  0  0  0  0
 15 16  1  0  0  0  0
 16 17  1  0  0  0  0
 15 18  2  0  0  0  0
 11 18  1  0  0  0  0
 12 19  1  0  0  0  0
 19 20  2  0  0  0  0
 20 21  1  0  0  0  0
 21 22  1  0  0  0  0
 22 23  1  0  0  0  0
 22 24  2  0  0  0  0
 19 24  1  0  0  0  0
  4 25  1  0  0  0  0
 25 26  2  0  0  0  0
 25 27  1  0  0  0  0
 27 28  1  0  0  0  0
 28 29  1  0  0  0  0
 28 30  1  0  0  0  0
 28 31  1  0  0  0  0
M  END
> <ID>
CPD_2067

$$$$
CPD_2072
  Mrv1822 09091914012D          

 28 30  0  0  1  0            999 V2000
   -0.0974   -1.7851    0.0000 H   0  0  0  0  0  0  0  0  0  0  0  0
    0.2382   -2.5388    0.0000 C   0  0  2  0  0  0  0  0  0  0  0  0
    1.0228   -2.2839    0.0000 C   0  0  0  0  0  0  0  0  0  0  0  0
    1.5077   -2.9513    0.0000 N   0  0  0  0  0  0  0  0  0  0  0  0
    1.0228   -3.6188    0.0000 C   0  0  0  0  0  0  0  0  0  0  0  0
    0.2382   -3.3638    0.0000 C   0  0  2  0  0  0  0  0  0  0  0  0
   -0.0974   -4.1175    0.0000 H   0  0  0  0  0  0  0  0  0  0  0  0
   -0.4763   -2.9513    0.0000 C   0  0  1  0  0  0  0  0  0  0  0  0
   -1.3013   -2.9513    0.0000 C   0  0  0  0  0  0  0  0  0  0  0  0
   -1.7138   -2.2368    0.0000 N   0  0  0  0  0  0  0  0  0  0  0  0
   -2.5388   -2.2368    0.0000 C   0  0  0  0  0  0  0  0  0  0  0  0
   -2.9513   -2.9513    0.0000 C   0  0  0  0  0  0  0  0  0  0  0  0
   -3.7763   -2.9513    0.0000 C   0  0  0  0  0  0  0  0  0  0  0  0
   -4.1888   -3.6658    0.0000 C   0  0  0  0  0  0  0  0  0  0  0  0
   -5.0138   -3.6658    0.0000 S   0  0  0  0  0  0  0  0  0  0  0  0
   -5.4263   -4.3803    0.0000 C   0  0  0  0  0  0  0  0  0  0  0  0
   -6.2513   -4.3803    0.0000 N   0  0  0  0  0  0  0  0  0  0  0  0
   -5.0138   -5.0947    0.0000 N   0  0  0  0  0  0  0  0  0  0  0  0
   -4.1888   -2.2368    0.0000 C   0  0  0  0  0  0  0  0  0  0  0  0
   -3.7763   -1.5224    0.0000 C   0  0  0  0  0  0  0  0  0  0  0  0
   -2.9513   -1.5224    0.0000 C   0  0  0  0  0  0  0  0  0  0  0  0
    2.3327   -2.9513    0.0000 C   0  0  0  0  0  0  0  0  0  0  0  0
    2.7452   -2.2368    0.0000 O   0  0  0  0  0  0  0  0  0  0  0  0
    2.7452   -3.6658    0.0000 O   0  0  0  0  0  0  0  0  0  0  0  0
    3.5702   -3.6658    0.0000 C   0  0  0  0  0  0  0  0  0  0  0  0
    4.3952   -3.6658    0.0000 C   0  0  0  0  0  0  0  0  0  0  0  0
    3.5702   -4.4908    0.0000 C   0  0  0  0  0  0  0  0  0  0  0  0
    3.5702   -2.8408    0.0000 C   0  0  0  0  0  0  0  0  0  0  0  0
  2  1  1  1  0  0  0
  2  3  1  0  0  0  0
  3  4  1  0  0  0  0
  4  5  1  0  0  0  0
  6  5  1  0  0  0  0
  2  6  1  0  0  0  0
  6  7  1  1  0  0  0
  6  8  1  0  0  0  0
  2  8  1  0  0  0  0
  8  9  1  1  0  0  0
  9 10  1  0  0  0  0
 10 11  1  0  0  0  0
 11 12  2  0  0  0  0
 12 13  1  0  0  0  0
 13 14  1  0  0  0  0
 14 15  1  0  0  0  0
 15 16  1  0  0  0  0
 16 17  1  0  0  0  0
 16 18  2  0  0  0  0
 13 19  2  0  0  0  0
 19 20  1  0  0  0  0
 20 21  2  0  0  0  0
 11 21  1  0  0  0  0
  4 22  1  0  0  0  0
 22 23  2  0  0  0  0
 22 24  1  0  0  0  0
 24 25  1  0  0  0  0
 25 26  1  0  0  0  0
 25 27  1  0  0  0  0
 25 28  1  0  0  0  0
M  END
> <ID>
CPD_2072

$$$$
CPD_2077
  Mrv1822 09091914012D          

 24 27  0  0  1  0            999 V2000
    0.8517   -2.4835    0.0000 H   0  0  0  0  0  0  0  0  0  0  0  0
    0.8517   -1.6585    0.0000 C   0  0  1  0  0  0  0  0  0  0  0  0
    0.1163   -2.0322    0.0000 C   0  0  0  0  0  0  0  0  0  0  0  0
    0.5657   -1.2419    0.0000 C   0  0  2  0  0  0  0  0  0  0  0  0
   -0.2319   -1.0310    0.0000 H   0  0  0  0  0  0  0  0  0  0  0  0
    1.3012   -1.6156    0.0000 C   0  0  0  0  0  0  0  0  0  0  0  0
    2.0368   -1.2419    0.0000 C   0  0  2  0  0  0  0  0  0  0  0  0
    2.8344   -1.4529    0.0000 C   0  0  0  0  0  0  0  0  0  0  0  0
    1.5873   -2.0322    0.0000 C   0  0  0  0  0  0  0  0  0  0  0  0
    2.0368   -0.4945    0.0000 C   0  0  0  0  0  0  0  0  0  0  0  0
    1.3012   -0.1208    0.0000 C   0  0  2  0  0  0  0  0  0  0  0  0
    0.8517   -0.9111    0.0000 C   0  0  0  0  0  0  0  0  0  0  0  0
    0.5657   -0.4945    0.0000 C   0  0  0  0  0  0  0  0  0  0  0  0
    1.3012    0.7042    0.0000 N   0  0  0  0  0  0  0  0  0  0  0  0
    2.0156    1.1167    0.0000 C   0  0  0  0  0  0  0  0  0  0  0  0
    2.0156    1.9417    0.0000 C   0  0  0  0  0  0  0  0  0  0  0  0
    2.7301    2.3542    0.0000 C   0  0  0  0  0  0  0  0  0  0  0  0
    3.4446    1.9418    0.0000 C   0  0  0  0  0  0  0  0  0  0  0  0
    3.4446    1.1168    0.0000 C   0  0  0  0  0  0  0  0  0  0  0  0
    2.7301    0.7042    0.0000 C   0  0  0  0  0  0  0  0  0  0  0  0
    4.1590    2.3543    0.0000 C   0  0  0  0  0  0  0  0  0  0  0  0
    4.1590    3.1793    0.0000 O   0  0  0  0  0  0  0  0  0  0  0  0
    4.8735    1.9418    0.0000 C   0  0  0  0  0  0  0  0  0  0  0  0
    5.5880    2.3543    0.0000 C   0  0  0  0  0  0  0  0  0  0  0  0
  2  1  1  1  0  0  0
  2  3  1  0  0  0  0
  4  3  1  0  0  0  0
  4  5  1  6  0  0  0
  4  6  1  0  0  0  0
  7  6  1  0  0  0  0
  7  8  1  6  0  0  0
  7  9  1  0  0  0  0
  2  9  1  0  0  0  0
 11 13  1  0  0  0  0
 11 10  1  0  0  0  0
 11 12  1  0  0  0  0
  2 12  1  0  0  0  0
  7 10  1  0  0  0  0
  4 13  1  0  0  0  0
 11 14  1  1  0  0  0
 14 15  1  0  0  0  0
 15 16  2  0  0  0  0
 16 17  1  0  0  0  0
 17 18  2  0  0  0  0
 18 19  1  0  0  0  0
 19 20  2  0  0  0  0
 15 20  1  0  0  0  0
 18 21  1  0  0  0  0
 21 22  2  0  0  0  0
 21 23  1  0  0  0  0
 23 24  1  0  0  0  0
M  END
> <ID>
CPD_2077

$$$$
CPD_2082
  Mrv1822 09091914012D          

 21 24  0  0  1  0            999 V2000
    0.8517   -2.4835    0.0000 H   0  0  0  0  0  0  0  0  0  0  0  0
    0.8517   -1.6585    0.0000 C   0  0  1  0  0  0  0  0  0  0  0  0
    0.1163   -2.0322    0.0000 C   0  0  0  0  0  0  0  0  0  0  0  0
    0.5657   -1.2419    0.0000 C   0  0  2  0  0  0  0  0  0  0  0  0
   -0.2319   -1.0310    0.0000 H   0  0  0  0  0  0  0  0  0  0  0  0
    1.3012   -1.6156    0.0000 C   0  0  0  0  0  0  0  0  0  0  0  0
    2.0368   -1.2419    0.0000 C   0  0  2  0  0  0  0  0  0  0  0  0
    2.8344   -1.4529    0.0000 C   0  0  0  0  0  0  0  0  0  0  0  0
    1.5873   -2.0322    0.0000 C   0  0  0  0  0  0  0  0  0  0  0  0
    2.0368   -0.4945    0.0000 C   0  0  0  0  0  0  0  0  0  0  0  0
    1.3012   -0.1208    0.0000 C   0  0  2  0  0  0  0  0  0  0  0  0
    0.8517   -0.9111    0.0000 C   0  0  0  0  0  0  0  0  0  0  0  0
    0.5657   -0.4945    0.0000 C   0  0  0  0  0  0  0  0  0  0  0  0
    1.3012    0.7042    0.0000 N   0  0  0  0  0  0  0  0  0  0  0  0
    2.0156    1.1167    0.0000 C   0  0  0  0  0  0  0  0  0  0  0  0
    2.0156    1.9417    0.0000 N   0  0  0  0  0  0  0  0  0  0  0  0
    2.7301    2.3542    0.0000 C   0  0  0  0  0  0  0  0  0  0  0  0
    3.4446    1.9418    0.0000 C   0  0  0  0  0  0  0  0  0  0  0  0
    3.4446    1.1168    0.0000 C   0  0  0  0  0  0  0  0  0  0  0  0
    2.7301    0.7042    0.0000 C   0  0  0  0  0  0  0  0  0  0  0  0
    2.7301   -0.1208    0.0000 N   0  0  0  0  0  0  0  0  0  0  0  0
  2  1  1  1  0  0  0
  2  3  1  0  0  0  0
  4  3  1  0  0  0  0
  4  5  1  6  0  0  0
  4  6  1  0  0  0  0
  7  6  1  0  0  0  0
  7  8  1  6  0  0  0
  7  9  1  0  0  0  0
  2  9  1  0  0  0  0
 11 13  1  0  0  0  0
 11 10  1  0  0  0  0
 11 12  1  0  0  0  0
  2 12  1  0  0  0  0
  7 10  1  0  0  0  0
  4 13  1  0  0  0  0
 11 14  1  1  0  0  0
 14 15  1  0  0  0  0
 15 16  2  0  0  0  0
 16 17  1  0  0  0  0
 17 18  2  0  0  0  0
 18 19  1  0  0  0  0
 19 20  2  0  0  0  0
 15 20  1  0  0  0  0
 20 21  1  0  0  0  0
M  END
> <ID>
CPD_2082

$$$$
CPD_2087
  Mrv1822 09091914012D          

 21 23  0  0  1  0            999 V2000
    0.8517   -2.4835    0.0000 H   0  0  0  0  0  0  0  0  0  0  0  0
    0.8517   -1.6585    0.0000 C   0  0  1  0  0  0  0  0  0  0  0  0
    0.1163   -2.0322    0.0000 C   0  0  0  0  0  0  0  0  0  0  0  0
    0.5657   -1.2419    0.0000 C   0  0  2  0  0  0  0  0  0  0  0  0
   -0.2319   -1.0310    0.0000 H   0  0  0  0  0  0  0  0  0  0  0  0
    1.3012   -1.6156    0.0000 C   0  0  0  0  0  0  0  0  0  0  0  0
    2.0368   -1.2419    0.0000 C   0  0  2  0  0  0  0  0  0  0  0  0
    2.8344   -1.4529    0.0000 C   0  0  0  0  0  0  0  0  0  0  0  0
    1.5873   -2.0322    0.0000 C   0  0  0  0  0  0  0  0  0  0  0  0
    2.0368   -0.4945    0.0000 C   0  0  0  0  0  0  0  0  0  0  0  0
    1.3012   -0.1208    0.0000 C   0  0  2  0  0  0  0  0  0  0  0  0
    0.8517   -0.9111    0.0000 C   0  0  0  0  0  0  0  0  0  0  0  0
    0.5657   -0.4945    0.0000 C   0  0  0  0  0  0  0  0  0  0  0  0
    1.3012    0.7042    0.0000 N   0  0  0  0  0  0  0  0  0  0  0  0
    0.5867    1.1167    0.0000 C   0  0  0  0  0  0  0  0  0  0  0  0
    0.5867    1.9417    0.0000 C   0  0  0  0  0  0  0  0  0  0  0  0
   -0.1278    2.3542    0.0000 N   0  0  0  0  0  0  0  0  0  0  0  0
   -0.1278    3.1792    0.0000 C   0  0  0  0  0  0  0  0  0  0  0  0
   -0.8423    3.5916    0.0000 C   0  0  0  0  0  0  0  0  0  0  0  0
   -0.8423    1.9416    0.0000 C   0  0  0  0  0  0  0  0  0  0  0  0
   -1.5568    2.3541    0.0000 C   0  0  0  0  0  0  0  0  0  0  0  0
  2  1  1  1  0  0  0
  2  3  1  0  0  0  0
  4  3  1  0  0  0  0
  4  5  1  6  0  0  0
  4  6  1  0  0  0  0
  7  6  1  0  0  0  0
  7  8  1  6  0  0  0
  7  9  1  0  0  0  0
  2  9  1  0  0  0  0
 11 13  1  0  0  0  0
 11 10  1  0  0  0  0
 11 12  1  0  0  0  0
  2 12  1  0  0  0  0
  7 10  1  0  0  0  0
  4 13  1  0  0  0  0
 11 14  1  1  0  0  0
 14 15  1  0  0  0  0
 15 16  1  0  0  0  0
 16 17  1  0  0  0  0
 17 18  1  0  0  0  0
 18 19  1  0  0  0  0
 17 20  1  0  0  0  0
 20 21  1  0  0  0  0
M  END
> <ID>
CPD_2087

$$$$
CPD_2092
  Mrv1822 09091914012D          

 21 23  0  0  0  0            999 V2000
    0.1067    7.2402    0.0000 Cl  0  0  0  0  0  0  0  0  0  0  0  0
   -0.6078    6.8277    0.0000 C   0  0  0  0  0  0  0  0  0  0  0  0
   -0.6078    6.0027    0.0000 C   0  0  0  0  0  0  0  0  0  0  0  0
   -1.3222    5.5902    0.0000 C   0  0  0  0  0  0  0  0  0  0  0  0
   -1.3222    4.7652    0.0000 C   0  0  0  0  0  0  0  0  0  0  0  0
   -2.0367    4.3527    0.0000 S   0  0  0  0  0  0  0  0  0  0  0  0
   -2.0367    3.5277    0.0000 C   0  0  0  0  0  0  0  0  0  0  0  0
   -1.3693    3.0428    0.0000 N   0  0  0  0  0  0  0  0  0  0  0  0
   -1.6242    2.2581    0.0000 N   0  0  0  0  0  0  0  0  0  0  0  0
   -2.4492    2.2581    0.0000 C   0  0  0  0  0  0  0  0  0  0  0  0
   -2.9341    1.5907    0.0000 N   0  0  0  0  0  0  0  0  0  0  0  0
   -3.7546    1.6769    0.0000 C   0  0  0  0  0  0  0  0  0  0  0  0
   -4.3066    1.0638    0.0000 C   0  0  0  0  0  0  0  0  0  0  0  0
   -5.0603    1.3994    0.0000 C   0  0  0  0  0  0  0  0  0  0  0  0
   -4.9741    2.2199    0.0000 C   0  0  0  0  0  0  0  0  0  0  0  0
   -4.1671    2.3914    0.0000 C   0  0  0  0  0  0  0  0  0  0  0  0
   -2.7041    3.0428    0.0000 S   0  0  0  0  0  0  0  0  0  0  0  0
   -2.0367    6.0027    0.0000 C   0  0  0  0  0  0  0  0  0  0  0  0
   -2.7512    5.5902    0.0000 Cl  0  0  0  0  0  0  0  0  0  0  0  0
   -2.0367    6.8277    0.0000 C   0  0  0  0  0  0  0  0  0  0  0  0
   -1.3222    7.2402    0.0000 C   0  0  0  0  0  0  0  0  0  0  0  0
  1  2  1  0  0  0  0
  2  3  2  0  0  0  0
  3  4  1  0  0  0  0
  4  5  1  0  0  0  0
  5  6  1  0  0  0  0
  6  7  1  0  0  0  0
  7  8  2  0  0  0  0
  8  9  1  0  0  0  0
  9 10  2  0  0  0  0
 10 11  1  0  0  0  0
 11 12  1  0  0  0  0
 12 13  1  0  0  0  0
 13 14  1  0  0  0  0
 14 15  1  0  0  0  0
 15 16  1  0  0  0  0
 12 16  1  0  0  0  0
 10 17  1  0  0  0  0
  7 17  1  0  0  0  0
  4 18  2  0  0  0  0
 18 19  1  0  0  0  0
 18 20  1  0  0  0  0
 20 21  2  0  0  0  0
  2 21  1  0  0  0  0
M  END
> <ID>
CPD_2092

$$$$
CPD_2097
  Mrv1822 09091914012D          

 31 33  0  0  0  0            999 V2000
    1.4289    0.8250    0.0000 C   0  0  0  0  0  0  0  0  0  0  0  0
    1.4289   -0.0000    0.0000 O   0  0  0  0  0  0  0  0  0  0  0  0
    0.7145   -0.4125    0.0000 C   0  0  0  0  0  0  0  0  0  0  0  0
    0.0000   -0.0000    0.0000 O   0  0  0  0  0  0  0  0  0  0  0  0
    0.7145   -1.2375    0.0000 C   0  0  0  0  0  0  0  0  0  0  0  0
    0.0470   -1.7224    0.0000 C   0  0  0  0  0  0  0  0  0  0  0  0
   -0.7376   -1.4675    0.0000 N   0  0  0  0  0  0  0  0  0  0  0  0
   -0.9091   -0.6605    0.0000 C   0  0  0  0  0  0  0  0  0  0  0  0
   -1.6937   -0.4056    0.0000 C   0  0  0  0  0  0  0  0  0  0  0  0
   -1.8653    0.4014    0.0000 C   0  0  0  0  0  0  0  0  0  0  0  0
   -2.6499    0.6563    0.0000 F   0  0  0  0  0  0  0  0  0  0  0  0
   -1.2522    0.9534    0.0000 C   0  0  0  0  0  0  0  0  0  0  0  0
   -1.4237    1.7604    0.0000 C   0  0  0  0  0  0  0  0  0  0  0  0
   -0.8106    2.3124    0.0000 C   0  0  0  0  0  0  0  0  0  0  0  0
   -0.0260    2.0575    0.0000 N   0  0  0  0  0  0  0  0  0  0  0  0
   -0.9821    3.1194    0.0000 C   0  0  0  0  0  0  0  0  0  0  0  0
   -0.3690    3.6714    0.0000 O   0  0  0  0  0  0  0  0  0  0  0  0
   -1.7668    3.3743    0.0000 O   0  0  0  0  0  0  0  0  0  0  0  0
   -0.4675    0.6985    0.0000 C   0  0  0  0  0  0  0  0  0  0  0  0
   -0.2960   -0.1085    0.0000 C   0  0  0  0  0  0  0  0  0  0  0  0
    0.3020   -2.5070    0.0000 N   0  0  0  0  0  0  0  0  0  0  0  0
    1.1270   -2.5070    0.0000 N   0  0  0  0  0  0  0  0  0  0  0  0
    1.3819   -1.7224    0.0000 N   0  0  0  0  0  0  0  0  0  0  0  0
   -0.1830   -3.1745    0.0000 C   0  0  0  0  0  0  0  0  0  0  0  0
    0.1526   -3.9282    0.0000 C   0  0  0  0  0  0  0  0  0  0  0  0
    0.9731   -4.0144    0.0000 O   0  0  0  0  0  0  0  0  0  0  0  0
    1.3086   -4.7681    0.0000 C   0  0  0  0  0  0  0  0  0  0  0  0
   -0.3323   -4.5956    0.0000 C   0  0  0  0  0  0  0  0  0  0  0  0
   -1.1528   -4.5094    0.0000 C   0  0  0  0  0  0  0  0  0  0  0  0
   -1.4884   -3.7557    0.0000 C   0  0  0  0  0  0  0  0  0  0  0  0
   -1.0034   -3.0882    0.0000 C   0  0  0  0  0  0  0  0  0  0  0  0
  1  2  1  0  0  0  0
  2  3  1  0  0  0  0
  3  4  2  0  0  0  0
  3  5  1  0  0  0  0
  5  6  2  0  0  0  0
  6  7  1  0  0  0  0
  7  8  1  0  0  0  0
  8  9  2  0  0  0  0
  9 10  1  0  0  0  0
 10 11  1  0  0  0  0
 10 12  2  0  0  0  0
 12 13  1  0  0  0  0
 13 14  1  0  0  0  0
 14 15  1  0  0  0  0
 14 16  1  0  0  0  0
 16 17  1  0  0  0  0
 16 18  2  0  0  0  0
 12 19  1  0  0  0  0
 19 20  2  0  0  0  0
  8 20  1  0  0  0  0
  6 21  1  0  0  0  0
 21 22  1  0  0  0  0
 22 23  2  0  0  0  0
  5 23  1  0  0  0  0
 21 24  1  0  0  0  0
 24 25  2  0  0  0  0
 25 26  1  0  0  0  0
 26 27  1  0  0  0  0
 25 28  1  0  0  0  0
 28 29  2  0  0  0  0
 29 30  1  0  0  0  0
 30 31  2  0  0  0  0
 24 31  1  0  0  0  0
M  END
> <ID>
CPD_2097

$$$$
CPD_2102
  Mrv1822 09091914012D          

 38 42  0  0  0  0            999 V2000
    4.4515   -3.0019    0.0000 C   0  0  0  0  0  0  0  0  0  0  0  0
    4.0390   -2.2874    0.0000 O   0  0  0  0  0  0  0  0  0  0  0  0
    3.2140   -2.2874    0.0000 C   0  0  0  0  0  0  0  0  0  0  0  0
    3.5495   -1.5337    0.0000 O   0  0  0  0  0  0  0  0  0  0  0  0
    2.8015   -3.0019    0.0000 C   0  0  0  0  0  0  0  0  0  0  0  0
    1.9810   -3.0881    0.0000 C   0  0  0  0  0  0  0  0  0  0  0  0
    1.4289   -2.4750    0.0000 N   0  0  0  0  0  0  0  0  0  0  0  0
    1.4289   -1.6500    0.0000 C   0  0  0  0  0  0  0  0  0  0  0  0
    0.7145   -1.2375    0.0000 C   0  0  0  0  0  0  0  0  0  0  0  0
    0.7145   -0.4125    0.0000 C   0  0  0  0  0  0  0  0  0  0  0  0
    1.4289    0.0000    0.0000 N   0  0  0  0  0  0  0  0  0  0  0  0
    2.1434   -0.4125    0.0000 C   0  0  0  0  0  0  0  0  0  0  0  0
    2.8579    0.0000    0.0000 C   0  0  0  0  0  0  0  0  0  0  0  0
    2.8579    0.8250    0.0000 F   0  0  0  0  0  0  0  0  0  0  0  0
    3.5724   -0.4125    0.0000 C   0  0  0  0  0  0  0  0  0  0  0  0
    3.5724   -1.2375    0.0000 C   0  0  0  0  0  0  0  0  0  0  0  0
    2.8579   -1.6500    0.0000 C   0  0  0  0  0  0  0  0  0  0  0  0
    2.1434   -1.2375    0.0000 C   0  0  0  0  0  0  0  0  0  0  0  0
    0.0000   -1.6500    0.0000 S   0  0  0  0  0  0  0  0  0  0  0  0
    0.4125   -2.3645    0.0000 O   0  0  0  0  0  0  0  0  0  0  0  0
   -0.4125   -0.9355    0.0000 O   0  0  0  0  0  0  0  0  0  0  0  0
   -0.7145   -2.0625    0.0000 C   0  0  0  0  0  0  0  0  0  0  0  0
   -0.7145   -2.8875    0.0000 C   0  0  0  0  0  0  0  0  0  0  0  0
   -1.4289   -3.3000    0.0000 C   0  0  0  0  0  0  0  0  0  0  0  0
   -2.1434   -2.8875    0.0000 C   0  0  0  0  0  0  0  0  0  0  0  0
   -2.1434   -2.0625    0.0000 C   0  0  0  0  0  0  0  0  0  0  0  0
   -1.4289   -1.6500    0.0000 C   0  0  0  0  0  0  0  0  0  0  0  0
    1.8094   -3.8951    0.0000 N   0  0  0  0  0  0  0  0  0  0  0  0
    2.5239   -4.3076    0.0000 N   0  0  0  0  0  0  0  0  0  0  0  0
    3.1370   -3.7555    0.0000 N   0  0  0  0  0  0  0  0  0  0  0  0
    1.0558   -4.2306    0.0000 C   0  0  0  0  0  0  0  0  0  0  0  0
    0.9695   -5.0511    0.0000 C   0  0  0  0  0  0  0  0  0  0  0  0
    1.6370   -5.5360    0.0000 O   0  0  0  0  0  0  0  0  0  0  0  0
    2.3907   -5.2005    0.0000 C   0  0  0  0  0  0  0  0  0  0  0  0
    0.2159   -5.3867    0.0000 C   0  0  0  0  0  0  0  0  0  0  0  0
   -0.4516   -4.9017    0.0000 C   0  0  0  0  0  0  0  0  0  0  0  0
   -0.3653   -4.0813    0.0000 C   0  0  0  0  0  0  0  0  0  0  0  0
    0.3883   -3.7457    0.0000 C   0  0  0  0  0  0  0  0  0  0  0  0
  1  2  1  0  0  0  0
  2  3  1  0  0  0  0
  3  4  2  0  0  0  0
  3  5  1  0  0  0  0
  5  6  2  0  0  0  0
  6  7  1  0  0  0  0
  7  8  1  0  0  0  0
  8  9  2  0  0  0  0
  9 10  1  0  0  0  0
 10 11  2  0  0  0  0
 11 12  1  0  0  0  0
 12 13  2  0  0  0  0
 13 14  1  0  0  0  0
 13 15  1  0  0  0  0
 15 16  2  0  0  0  0
 16 17  1  0  0  0  0
 17 18  2  0  0  0  0
  8 18  1  0  0  0  0
 12 18  1  0  0  0  0
  9 19  1  0  0  0  0
 19 20  2  0  0  0  0
 19 21  2  0  0  0  0
 19 22  1  0  0  0  0
 22 23  2  0  0  0  0
 23 24  1  0  0  0  0
 24 25  2  0  0  0  0
 25 26  1  0  0  0  0
 26 27  2  0  0  0  0
 22 27  1  0  0  0  0
  6 28  1  0  0  0  0
 28 29  1  0  0  0  0
 29 30  2  0  0  0  0
  5 30  1  0  0  0  0
 28 31  1  0  0  0  0
 31 32  2  0  0  0  0
 32 33  1  0  0  0  0
 33 34  1  0  0  0  0
 32 35  1  0  0  0  0
 35 36  2  0  0  0  0
 36 37  1  0  0  0  0
 37 38  2  0  0  0  0
 31 38  1  0  0  0  0
M  END
> <ID>
CPD_2102

$$$$
CPD_2107
  Mrv1822 09091914012D          

 25 28  0  0  0  0            999 V2000
    0.7961    3.0083    0.0000 C   0  0  0  0  0  0  0  0  0  0  0  0
   -0.0109    2.8368    0.0000 O   0  0  0  0  0  0  0  0  0  0  0  0
   -0.2658    2.0522    0.0000 C   0  0  0  0  0  0  0  0  0  0  0  0
    0.2862    1.4391    0.0000 O   0  0  0  0  0  0  0  0  0  0  0  0
   -1.0728    1.8806    0.0000 C   0  0  0  0  0  0  0  0  0  0  0  0
   -1.4084    1.1270    0.0000 C   0  0  0  0  0  0  0  0  0  0  0  0
   -0.9959    0.4125    0.0000 N   0  0  0  0  0  0  0  0  0  0  0  0
   -0.1709    0.4125    0.0000 C   0  0  0  0  0  0  0  0  0  0  0  0
    0.4125    0.9959    0.0000 C   0  0  0  0  0  0  0  0  0  0  0  0
    0.9959    0.4125    0.0000 C   0  0  0  0  0  0  0  0  0  0  0  0
    1.5792    0.9959    0.0000 C   0  0  0  0  0  0  0  0  0  0  0  0
    2.1626    0.4125    0.0000 O   0  0  0  0  0  0  0  0  0  0  0  0
    1.5792   -0.1709    0.0000 C   0  0  0  0  0  0  0  0  0  0  0  0
    0.4125   -0.1709    0.0000 C   0  0  0  0  0  0  0  0  0  0  0  0
   -2.2288    1.2132    0.0000 N   0  0  0  0  0  0  0  0  0  0  0  0
   -2.4004    2.0202    0.0000 N   0  0  0  0  0  0  0  0  0  0  0  0
   -1.6859    2.4327    0.0000 N   0  0  0  0  0  0  0  0  0  0  0  0
   -2.7809    0.6001    0.0000 C   0  0  0  0  0  0  0  0  0  0  0  0
   -2.5259   -0.1845    0.0000 C   0  0  0  0  0  0  0  0  0  0  0  0
   -1.7190   -0.3560    0.0000 O   0  0  0  0  0  0  0  0  0  0  0  0
   -1.4640   -1.1407    0.0000 C   0  0  0  0  0  0  0  0  0  0  0  0
   -3.0780   -0.7976    0.0000 C   0  0  0  0  0  0  0  0  0  0  0  0
   -3.8849   -0.6261    0.0000 C   0  0  0  0  0  0  0  0  0  0  0  0
   -4.1399    0.1585    0.0000 C   0  0  0  0  0  0  0  0  0  0  0  0
   -3.5878    0.7716    0.0000 C   0  0  0  0  0  0  0  0  0  0  0  0
  1  2  1  0  0  0  0
  2  3  1  0  0  0  0
  3  4  2  0  0  0  0
  3  5  1  0  0  0  0
  5  6  2  0  0  0  0
  6  7  1  0  0  0  0
  7  8  1  0  0  0  0
  8  9  1  0  0  0  0
  9 10  1  0  0  0  0
 10 11  1  0  0  0  0
 11 12  1  0  0  0  0
 12 13  1  0  0  0  0
 10 13  1  0  0  0  0
 10 14  1  0  0  0  0
  8 14  1  0  0  0  0
  6 15  1  0  0  0  0
 15 16  1  0  0  0  0
 16 17  2  0  0  0  0
  5 17  1  0  0  0  0
 15 18  1  0  0  0  0
 18 19  2  0  0  0  0
 19 20  1  0  0  0  0
 20 21  1  0  0  0  0
 19 22  1  0  0  0  0
 22 23  2  0  0  0  0
 23 24  1  0  0  0  0
 24 25  2  0  0  0  0
 18 25  1  0  0  0  0
M  END
> <ID>
CPD_2107

$$$$
CPD_2112
  Mrv1822 09091914012D          

 20 22  0  0  0  0            999 V2000
   -1.4289   -2.4750    0.0000 N   0  0  0  0  0  0  0  0  0  0  0  0
   -0.7145   -2.8875    0.0000 C   0  0  0  0  0  0  0  0  0  0  0  0
    0.0000   -2.4750    0.0000 C   0  0  0  0  0  0  0  0  0  0  0  0
    0.0000   -1.6500    0.0000 N   0  0  0  0  0  0  0  0  0  0  0  0
    0.7145   -1.2375    0.0000 C   0  0  0  0  0  0  0  0  0  0  0  0
    0.7145   -0.4125    0.0000 C   0  0  0  0  0  0  0  0  0  0  0  0
    0.0000    0.0000    0.0000 C   0  0  0  0  0  0  0  0  0  0  0  0
   -0.7846   -0.2549    0.0000 C   0  0  0  0  0  0  0  0  0  0  0  0
   -1.2695    0.4125    0.0000 N   0  0  0  0  0  0  0  0  0  0  0  0
   -0.7846    1.0799    0.0000 N   0  0  0  0  0  0  0  0  0  0  0  0
    0.0000    0.8250    0.0000 C   0  0  0  0  0  0  0  0  0  0  0  0
    0.7145    1.2375    0.0000 C   0  0  0  0  0  0  0  0  0  0  0  0
    1.4289    0.8250    0.0000 C   0  0  0  0  0  0  0  0  0  0  0  0
    1.4289    0.0000    0.0000 C   0  0  0  0  0  0  0  0  0  0  0  0
    0.7145   -2.8875    0.0000 C   0  0  0  0  0  0  0  0  0  0  0  0
    0.7145   -3.7125    0.0000 C   0  0  0  0  0  0  0  0  0  0  0  0
    0.0000   -4.1250    0.0000 C   0  0  0  0  0  0  0  0  0  0  0  0
    0.0000   -4.9500    0.0000 C   0  0  0  0  0  0  0  0  0  0  0  0
    0.7145   -5.3625    0.0000 O   0  0  0  0  0  0  0  0  0  0  0  0
   -0.7145   -3.7125    0.0000 C   0  0  0  0  0  0  0  0  0  0  0  0
  1  2  1  0  0  0  0
  2  3  2  0  0  0  0
  3  4  1  0  0  0  0
  4  5  1  0  0  0  0
  5  6  1  0  0  0  0
  6  7  2  0  0  0  0
  7  8  1  0  0  0  0
  8  9  2  0  0  0  0
  9 10  1  0  0  0  0
 10 11  1  0  0  0  0
  7 11  1  0  0  0  0
 11 12  2  0  0  0  0
 12 13  1  0  0  0  0
 13 14  2  0  0  0  0
  6 14  1  0  0  0  0
  3 15  1  0  0  0  0
 15 16  2  0  0  0  0
 16 17  1  0  0  0  0
 17 18  1  0  0  0  0
 18 19  1  0  0  0  0
 17 20  2  0  0  0  0
  2 20  1  0  0  0  0
M  END
> <ID>
CPD_2112

$$$$
CPD_2117
  Mrv1822 09091914012D          

 21 22  0  0  0  0            999 V2000
   -1.4289    0.8250    0.0000 C   0  0  0  0  0  0  0  0  0  0  0  0
   -1.4289   -0.0000    0.0000 C   0  0  0  0  0  0  0  0  0  0  0  0
   -0.7145   -0.4125    0.0000 C   0  0  0  0  0  0  0  0  0  0  0  0
    0.0000   -0.0000    0.0000 O   0  0  0  0  0  0  0  0  0  0  0  0
   -0.7145   -1.2375    0.0000 C   0  0  0  0  0  0  0  0  0  0  0  0
    0.0000   -1.6500    0.0000 C   0  0  0  0  0  0  0  0  0  0  0  0
    0.0000   -2.4750    0.0000 C   0  0  0  0  0  0  0  0  0  0  0  0
   -0.7145   -2.8875    0.0000 C   0  0  0  0  0  0  0  0  0  0  0  0
   -0.7145   -3.7125    0.0000 N   0  0  0  0  0  0  0  0  0  0  0  0
   -0.0000   -4.1250    0.0000 C   0  0  0  0  0  0  0  0  0  0  0  0
    0.7145   -3.7125    0.0000 C   0  0  0  0  0  0  0  0  0  0  0  0
    0.7145   -2.8875    0.0000 N   0  0  0  0  0  0  0  0  0  0  0  0
    1.4289   -4.1250    0.0000 C   0  0  0  0  0  0  0  0  0  0  0  0
    1.4289   -4.9500    0.0000 C   0  0  0  0  0  0  0  0  0  0  0  0
    0.7145   -5.3625    0.0000 C   0  0  0  0  0  0  0  0  0  0  0  0
    0.7145   -6.1875    0.0000 C   0  0  0  0  0  0  0  0  0  0  0  0
    1.4289   -6.6000    0.0000 O   0  0  0  0  0  0  0  0  0  0  0  0
   -0.0000   -4.9500    0.0000 C   0  0  0  0  0  0  0  0  0  0  0  0
   -1.4289   -2.4750    0.0000 C   0  0  0  0  0  0  0  0  0  0  0  0
   -2.1434   -2.8875    0.0000 F   0  0  0  0  0  0  0  0  0  0  0  0
   -1.4289   -1.6500    0.0000 C   0  0  0  0  0  0  0  0  0  0  0  0
  1  2  1  0  0  0  0
  2  3  1  0  0  0  0
  3  4  2  0  0  0  0
  3  5  1  0  0  0  0
  5  6  2  0  0  0  0
  6  7  1  0  0  0  0
  7  8  2  0  0  0  0
  8  9  1  0  0  0  0
  9 10  1  0  0  0  0
 10 11  2  0  0  0  0
 11 12  1  0  0  0  0
 11 13  1  0  0  0  0
 13 14  2  0  0  0  0
 14 15  1  0  0  0  0
 15 16  1  0  0  0  0
 16 17  1  0  0  0  0
 15 18  2  0  0  0  0
 10 18  1  0  0  0  0
  8 19  1  0  0  0  0
 19 20  1  0  0  0  0
 19 21  2  0  0  0  0
  5 21  1  0  0  0  0
M  END
> <ID>
CPD_2117

$$$$
CPD_2122
  Mrv1822 09091914012D          

 23 25  0  0  0  0            999 V2000
    0.0000   -1.6500    0.0000 N   0  0  0  0  0  0  0  0  0  0  0  0
    0.0000   -2.4750    0.0000 C   0  0  0  0  0  0  0  0  0  0  0  0
    0.7145   -2.8875    0.0000 C   0  0  0  0  0  0  0  0  0  0  0  0
    1.4289   -2.4750    0.0000 N   0  0  0  0  0  0  0  0  0  0  0  0
    1.4289   -1.6500    0.0000 C   0  0  0  0  0  0  0  0  0  0  0  0
    0.7145   -1.2375    0.0000 C   0  0  0  0  0  0  0  0  0  0  0  0
    0.7145   -0.4125    0.0000 C   0  0  0  0  0  0  0  0  0  0  0  0
    1.4289    0.0000    0.0000 N   0  0  0  0  0  0  0  0  0  0  0  0
    2.1434   -0.4125    0.0000 C   0  0  0  0  0  0  0  0  0  0  0  0
    2.8579    0.0000    0.0000 C   0  0  0  0  0  0  0  0  0  0  0  0
    3.5724   -0.4125    0.0000 C   0  0  0  0  0  0  0  0  0  0  0  0
    3.5724   -1.2375    0.0000 C   0  0  0  0  0  0  0  0  0  0  0  0
    2.8579   -1.6500    0.0000 C   0  0  0  0  0  0  0  0  0  0  0  0
    2.1434   -1.2375    0.0000 C   0  0  0  0  0  0  0  0  0  0  0  0
    4.2868   -1.6500    0.0000 C   0  0  0  0  0  0  0  0  0  0  0  0
    5.0013   -1.2375    0.0000 O   0  0  0  0  0  0  0  0  0  0  0  0
    4.2868   -2.4750    0.0000 O   0  0  0  0  0  0  0  0  0  0  0  0
    0.7145   -3.7125    0.0000 C   0  0  0  0  0  0  0  0  0  0  0  0
    0.0000   -4.1250    0.0000 C   0  0  0  0  0  0  0  0  0  0  0  0
    0.0000   -4.9500    0.0000 C   0  0  0  0  0  0  0  0  0  0  0  0
    0.7145   -5.3625    0.0000 O   0  0  0  0  0  0  0  0  0  0  0  0
   -0.7145   -3.7125    0.0000 C   0  0  0  0  0  0  0  0  0  0  0  0
   -0.7145   -2.8875    0.0000 C   0  0  0  0  0  0  0  0  0  0  0  0
  1  2  1  0  0  0  0
  2  3  2  0  0  0  0
  3  4  1  0  0  0  0
  4  5  1  0  0  0  0
  5  6  2  0  0  0  0
  6  7  1  0  0  0  0
  7  8  2  0  0  0  0
  8  9  1  0  0  0  0
  9 10  2  0  0  0  0
 10 11  1  0  0  0  0
 11 12  2  0  0  0  0
 12 13  1  0  0  0  0
 13 14  2  0  0  0  0
  5 14  1  0  0  0  0
  9 14  1  0  0  0  0
 12 15  1  0  0  0  0
 15 16  1  0  0  0  0
 15 17  2  0  0  0  0
  3 18  1  0  0  0  0
 18 19  2  0  0  0  0
 19 20  1  0  0  0  0
 20 21  1  0  0  0  0
 19 22  1  0  0  0  0
 22 23  2  0  0  0  0
  2 23  1  0  0  0  0
M  END
> <ID>
CPD_2122

$$$$
CPD_2127
  Mrv1822 09091914012D          

 27 29  0  0  0  0            999 V2000
    4.2868   -1.6500    0.0000 C   0  0  0  0  0  0  0  0  0  0  0  0
    4.2868   -2.4750    0.0000 C   0  0  0  0  0  0  0  0  0  0  0  0
    3.5724   -2.8875    0.0000 C   0  0  0  0  0  0  0  0  0  0  0  0
    3.5724   -3.7125    0.0000 C   0  0  0  0  0  0  0  0  0  0  0  0
    2.8579   -4.1250    0.0000 C   0  0  0  0  0  0  0  0  0  0  0  0
    4.2868   -4.1250    0.0000 C   0  0  0  0  0  0  0  0  0  0  0  0
    5.0013   -3.7125    0.0000 C   0  0  0  0  0  0  0  0  0  0  0  0
    5.0013   -2.8875    0.0000 C   0  0  0  0  0  0  0  0  0  0  0  0
    4.2868   -4.9500    0.0000 C   0  0  0  0  0  0  0  0  0  0  0  0
    5.0013   -5.3625    0.0000 C   0  0  0  0  0  0  0  0  0  0  0  0
    5.0013   -6.1875    0.0000 C   0  0  0  0  0  0  0  0  0  0  0  0
    4.2868   -6.6000    0.0000 C   0  0  0  0  0  0  0  0  0  0  0  0
    4.2868   -7.4250    0.0000 N   0  0  0  0  0  0  0  0  0  0  0  0
    3.5724   -7.8375    0.0000 C   0  0  0  0  0  0  0  0  0  0  0  0
    3.5724   -8.6625    0.0000 C   0  0  0  0  0  0  0  0  0  0  0  0
    4.2868   -9.0750    0.0000 F   0  0  0  0  0  0  0  0  0  0  0  0
    2.8579   -9.0750    0.0000 C   0  0  0  0  0  0  0  0  0  0  0  0
    2.1434   -8.6625    0.0000 C   0  0  0  0  0  0  0  0  0  0  0  0
    1.4289   -9.0750    0.0000 Cl  0  0  0  0  0  0  0  0  0  0  0  0
    2.1434   -7.8375    0.0000 C   0  0  0  0  0  0  0  0  0  0  0  0
    1.4289   -7.4250    0.0000 N   0  0  0  0  0  0  0  0  0  0  0  0
    2.8579   -7.4250    0.0000 C   0  0  0  0  0  0  0  0  0  0  0  0
    3.5724   -6.1875    0.0000 C   0  0  0  0  0  0  0  0  0  0  0  0
    3.5724   -5.3625    0.0000 C   0  0  0  0  0  0  0  0  0  0  0  0
    5.7158   -4.9500    0.0000 C   0  0  0  0  0  0  0  0  0  0  0  0
    6.4302   -5.3625    0.0000 O   0  0  0  0  0  0  0  0  0  0  0  0
    5.7158   -4.1250    0.0000 O   0  0  0  0  0  0  0  0  0  0  0  0
  1  2  1  0  0  0  0
  2  3  2  0  0  0  0
  3  4  1  0  0  0  0
  4  5  1  0  0  0  0
  4  6  2  0  0  0  0
  6  7  1  0  0  0  0
  7  8  2  0  0  0  0
  2  8  1  0  0  0  0
  6  9  1  0  0  0  0
  9 10  2  0  0  0  0
 10 11  1  0  0  0  0
 11 12  2  0  0  0  0
 12 13  1  0  0  0  0
 13 14  1  0  0  0  0
 14 15  2  0  0  0  0
 15 16  1  0  0  0  0
 15 17  1  0  0  0  0
 17 18  2  0  0  0  0
 18 19  1  0  0  0  0
 18 20  1  0  0  0  0
 20 21  1  0  0  0  0
 20 22  2  0  0  0  0
 14 22  1  0  0  0  0
 12 23  1  0  0  0  0
 23 24  2  0  0  0  0
  9 24  1  0  0  0  0
 10 25  1  0  0  0  0
 25 26  1  0  0  0  0
 25 27  2  0  0  0  0
M  END
> <ID>
CPD_2127

$$$$
CPD_2132
  Mrv1822 09091914012D          

 24 25  0  0  0  0            999 V2000
    1.4289    1.6500    0.0000 C   0  0  0  0  0  0  0  0  0  0  0  0
    1.4289    0.8250    0.0000 C   0  0  0  0  0  0  0  0  0  0  0  0
    0.7145    0.4125    0.0000 C   0  0  0  0  0  0  0  0  0  0  0  0
    2.1434    0.4125    0.0000 N   0  0  0  0  0  0  0  0  0  0  0  0
    2.1434   -0.4125    0.0000 S   0  0  0  0  0  0  0  0  0  0  0  0
    1.3184   -0.4125    0.0000 O   0  0  0  0  0  0  0  0  0  0  0  0
    2.9684   -0.4125    0.0000 O   0  0  0  0  0  0  0  0  0  0  0  0
    2.1434   -1.2375    0.0000 C   0  0  0  0  0  0  0  0  0  0  0  0
    2.8579   -1.6500    0.0000 C   0  0  0  0  0  0  0  0  0  0  0  0
    2.8579   -2.4750    0.0000 C   0  0  0  0  0  0  0  0  0  0  0  0
    3.5724   -2.8875    0.0000 C   0  0  0  0  0  0  0  0  0  0  0  0
    2.1434   -2.8875    0.0000 C   0  0  0  0  0  0  0  0  0  0  0  0
    2.1434   -3.7125    0.0000 N   0  0  0  0  0  0  0  0  0  0  0  0
    1.4289   -4.1250    0.0000 C   0  0  0  0  0  0  0  0  0  0  0  0
    1.4289   -4.9500    0.0000 C   0  0  0  0  0  0  0  0  0  0  0  0
    2.1434   -5.3625    0.0000 F   0  0  0  0  0  0  0  0  0  0  0  0
    0.7145   -5.3625    0.0000 C   0  0  0  0  0  0  0  0  0  0  0  0
   -0.0000   -4.9500    0.0000 C   0  0  0  0  0  0  0  0  0  0  0  0
   -0.7145   -5.3625    0.0000 Cl  0  0  0  0  0  0  0  0  0  0  0  0
   -0.0000   -4.1250    0.0000 C   0  0  0  0  0  0  0  0  0  0  0  0
   -0.7145   -3.7125    0.0000 N   0  0  0  0  0  0  0  0  0  0  0  0
    0.7145   -3.7125    0.0000 C   0  0  0  0  0  0  0  0  0  0  0  0
    1.4289   -2.4750    0.0000 C   0  0  0  0  0  0  0  0  0  0  0  0
    1.4289   -1.6500    0.0000 C   0  0  0  0  0  0  0  0  0  0  0  0
  1  2  1  0  0  0  0
  2  3  1  0  0  0  0
  2  4  1  0  0  0  0
  4  5  1  0  0  0  0
  5  6  2  0  0  0  0
  5  7  2  0  0  0  0
  5  8  1  0  0  0  0
  8  9  2  0  0  0  0
  9 10  1  0  0  0  0
 10 11  1  0  0  0  0
 10 12  2  0  0  0  0
 12 13  1  0  0  0  0
 13 14  1  0  0  0  0
 14 15  2  0  0  0  0
 15 16  1  0  0  0  0
 15 17  1  0  0  0  0
 17 18  2  0  0  0  0
 18 19  1  0  0  0  0
 18 20  1  0  0  0  0
 20 21  1  0  0  0  0
 20 22  2  0  0  0  0
 14 22  1  0  0  0  0
 12 23  1  0  0  0  0
 23 24  2  0  0  0  0
  8 24  1  0  0  0  0
M  END
> <ID>
CPD_2132

$$$$
CPD_2137
  Mrv1822 09091914012D          

 24 26  0  0  0  0            999 V2000
    1.2197    3.1792    0.0000 F   0  0  0  0  0  0  0  0  0  0  0  0
    1.2197    2.3542    0.0000 C   0  0  0  0  0  0  0  0  0  0  0  0
    1.9341    1.9417    0.0000 C   0  0  0  0  0  0  0  0  0  0  0  0
    1.9341    1.1167    0.0000 C   0  0  0  0  0  0  0  0  0  0  0  0
    2.6486    0.7042    0.0000 F   0  0  0  0  0  0  0  0  0  0  0  0
    1.2197    0.7042    0.0000 C   0  0  0  0  0  0  0  0  0  0  0  0
    0.5052    1.1167    0.0000 C   0  0  0  0  0  0  0  0  0  0  0  0
    0.5052    1.9417    0.0000 C   0  0  0  0  0  0  0  0  0  0  0  0
    1.2197   -0.1208    0.0000 C   0  0  0  0  0  0  0  0  0  0  0  0
    0.5052   -0.5333    0.0000 O   0  0  0  0  0  0  0  0  0  0  0  0
    1.9341   -0.5333    0.0000 C   0  0  0  0  0  0  0  0  0  0  0  0
    1.9341   -1.3583    0.0000 N   0  0  0  0  0  0  0  0  0  0  0  0
    2.5175   -1.9417    0.0000 C   0  0  0  0  0  0  0  0  0  0  0  0
    1.9341   -2.5250    0.0000 C   0  0  0  0  0  0  0  0  0  0  0  0
    1.3508   -1.9417    0.0000 C   0  0  0  0  0  0  0  0  0  0  0  0
    1.9341   -3.3500    0.0000 O   0  0  0  0  0  0  0  0  0  0  0  0
    1.2197   -3.7625    0.0000 C   0  0  0  0  0  0  0  0  0  0  0  0
    1.2197   -4.5875    0.0000 C   0  0  0  0  0  0  0  0  0  0  0  0
    0.5052   -5.0000    0.0000 C   0  0  0  0  0  0  0  0  0  0  0  0
    0.5052   -5.8250    0.0000 F   0  0  0  0  0  0  0  0  0  0  0  0
   -0.2093   -4.5875    0.0000 C   0  0  0  0  0  0  0  0  0  0  0  0
   -0.9237   -5.0000    0.0000 F   0  0  0  0  0  0  0  0  0  0  0  0
   -0.2093   -3.7625    0.0000 C   0  0  0  0  0  0  0  0  0  0  0  0
    0.5052   -3.3500    0.0000 C   0  0  0  0  0  0  0  0  0  0  0  0
  1  2  1  0  0  0  0
  2  3  2  0  0  0  0
  3  4  1  0  0  0  0
  4  5  1  0  0  0  0
  4  6  2  0  0  0  0
  6  7  1  0  0  0  0
  7  8  2  0  0  0  0
  2  8  1  0  0  0  0
  6  9  1  0  0  0  0
  9 10  2  0  0  0  0
  9 11  1  0  0  0  0
 11 12  1  0  0  0  0
 12 13  1  0  0  0  0
 13 14  1  0  0  0  0
 14 15  1  0  0  0  0
 12 15  1  0  0  0  0
 14 16  1  0  0  0  0
 16 17  1  0  0  0  0
 17 18  2  0  0  0  0
 18 19  1  0  0  0  0
 19 20  1  0  0  0  0
 19 21  2  0  0  0  0
 21 22  1  0  0  0  0
 21 23  1  0  0  0  0
 23 24  2  0  0  0  0
 17 24  1  0  0  0  0
M  END
> <ID>
CPD_2137

$$$$
CPD_2142
  Mrv1822 09091914012D          

 21 22  0  0  0  0            999 V2000
   -4.5828   -5.1209    0.0000 C   0  0  0  0  0  0  0  0  0  0  0  0
   -3.8683   -5.5334    0.0000 C   0  0  0  0  0  0  0  0  0  0  0  0
   -3.8683   -6.3584    0.0000 O   0  0  0  0  0  0  0  0  0  0  0  0
   -3.1538   -5.1209    0.0000 O   0  0  0  0  0  0  0  0  0  0  0  0
   -2.4394   -5.5334    0.0000 C   0  0  0  0  0  0  0  0  0  0  0  0
   -1.7249   -5.1209    0.0000 C   0  0  0  0  0  0  0  0  0  0  0  0
   -1.0104   -5.5334    0.0000 C   0  0  0  0  0  0  0  0  0  0  0  0
   -0.2959   -5.1209    0.0000 C   0  0  0  0  0  0  0  0  0  0  0  0
    0.4185   -5.5334    0.0000 N   0  0  0  0  0  0  0  0  0  0  0  0
    1.2154   -5.3198    0.0000 C   0  0  0  0  0  0  0  0  0  0  0  0
    1.4289   -6.1167    0.0000 C   0  0  0  0  0  0  0  0  0  0  0  0
    0.6321   -6.3303    0.0000 C   0  0  0  0  0  0  0  0  0  0  0  0
    2.1434   -6.5292    0.0000 O   0  0  0  0  0  0  0  0  0  0  0  0
    2.8579   -6.1167    0.0000 C   0  0  0  0  0  0  0  0  0  0  0  0
    2.8579   -5.2917    0.0000 C   0  0  0  0  0  0  0  0  0  0  0  0
    3.5724   -4.8792    0.0000 C   0  0  0  0  0  0  0  0  0  0  0  0
    3.5724   -4.0542    0.0000 F   0  0  0  0  0  0  0  0  0  0  0  0
    4.2868   -5.2917    0.0000 C   0  0  0  0  0  0  0  0  0  0  0  0
    5.0013   -4.8792    0.0000 F   0  0  0  0  0  0  0  0  0  0  0  0
    4.2868   -6.1167    0.0000 C   0  0  0  0  0  0  0  0  0  0  0  0
    3.5724   -6.5292    0.0000 C   0  0  0  0  0  0  0  0  0  0  0  0
  1  2  1  0  0  0  0
  2  3  2  0  0  0  0
  2  4  1  0  0  0  0
  4  5  1  0  0  0  0
  5  6  1  0  0  0  0
  6  7  1  0  0  0  0
  7  8  1  0  0  0  0
  8  9  1  0  0  0  0
  9 10  1  0  0  0  0
 10 11  1  0  0  0  0
 11 12  1  0  0  0  0
  9 12  1  0  0  0  0
 11 13  1  0  0  0  0
 13 14  1  0  0  0  0
 14 15  2  0  0  0  0
 15 16  1  0  0  0  0
 16 17  1  0  0  0  0
 16 18  2  0  0  0  0
 18 19  1  0  0  0  0
 18 20  1  0  0  0  0
 20 21  2  0  0  0  0
 14 21  1  0  0  0  0
M  END
> <ID>
CPD_2142

$$$$
CPD_2147
  Mrv1822 09091914012D          

 31 34  0  0  0  0            999 V2000
    4.2129    2.3785    0.0000 C   0  0  0  0  0  0  0  0  0  0  0  0
    3.8774    1.6249    0.0000 S   0  0  0  0  0  0  0  0  0  0  0  0
    3.1237    1.9604    0.0000 O   0  0  0  0  0  0  0  0  0  0  0  0
    4.6311    1.2893    0.0000 O   0  0  0  0  0  0  0  0  0  0  0  0
    3.5418    0.8712    0.0000 C   0  0  0  0  0  0  0  0  0  0  0  0
    3.9543    0.1567    0.0000 N   0  0  0  0  0  0  0  0  0  0  0  0
    3.4023   -0.4564    0.0000 C   0  0  0  0  0  0  0  0  0  0  0  0
    2.6486   -0.1208    0.0000 C   0  0  0  0  0  0  0  0  0  0  0  0
    1.9341   -0.5333    0.0000 C   0  0  0  0  0  0  0  0  0  0  0  0
    1.9341   -1.3583    0.0000 N   0  0  0  0  0  0  0  0  0  0  0  0
    2.5175   -1.9417    0.0000 C   0  0  0  0  0  0  0  0  0  0  0  0
    1.9341   -2.5250    0.0000 C   0  0  0  0  0  0  0  0  0  0  0  0
    1.3508   -1.9417    0.0000 C   0  0  0  0  0  0  0  0  0  0  0  0
    1.9341   -3.3500    0.0000 O   0  0  0  0  0  0  0  0  0  0  0  0
    1.2197   -3.7625    0.0000 C   0  0  0  0  0  0  0  0  0  0  0  0
    1.2197   -4.5875    0.0000 N   0  0  0  0  0  0  0  0  0  0  0  0
    0.5052   -5.0000    0.0000 C   0  0  0  0  0  0  0  0  0  0  0  0
   -0.2093   -4.5875    0.0000 C   0  0  0  0  0  0  0  0  0  0  0  0
   -0.2093   -3.7625    0.0000 C   0  0  0  0  0  0  0  0  0  0  0  0
    0.5052   -3.3500    0.0000 C   0  0  0  0  0  0  0  0  0  0  0  0
   -0.9237   -5.0000    0.0000 C   0  0  0  0  0  0  0  0  0  0  0  0
   -1.6382   -5.4125    0.0000 F   0  0  0  0  0  0  0  0  0  0  0  0
   -0.5112   -5.7145    0.0000 F   0  0  0  0  0  0  0  0  0  0  0  0
   -1.3362   -4.2856    0.0000 F   0  0  0  0  0  0  0  0  0  0  0  0
    2.7349    0.6997    0.0000 N   0  0  0  0  0  0  0  0  0  0  0  0
    2.1218    1.2517    0.0000 C   0  0  0  0  0  0  0  0  0  0  0  0
    2.2933    2.0587    0.0000 C   0  0  0  0  0  0  0  0  0  0  0  0
    1.7413    2.6718    0.0000 C   0  0  0  0  0  0  0  0  0  0  0  0
    2.1538    3.3862    0.0000 C   0  0  0  0  0  0  0  0  0  0  0  0
    2.9607    3.2147    0.0000 C   0  0  0  0  0  0  0  0  0  0  0  0
    3.0470    2.3942    0.0000 O   0  0  0  0  0  0  0  0  0  0  0  0
  1  2  1  0  0  0  0
  2  3  2  0  0  0  0
  2  4  2  0  0  0  0
  2  5  1  0  0  0  0
  5  6  2  0  0  0  0
  6  7  1  0  0  0  0
  7  8  2  0  0  0  0
  8  9  1  0  0  0  0
  9 10  1  0  0  0  0
 10 11  1  0  0  0  0
 11 12  1  0  0  0  0
 12 13  1  0  0  0  0
 10 13  1  0  0  0  0
 12 14  1  0  0  0  0
 14 15  1  0  0  0  0
 15 16  2  0  0  0  0
 16 17  1  0  0  0  0
 17 18  2  0  0  0  0
 18 19  1  0  0  0  0
 19 20  2  0  0  0  0
 15 20  1  0  0  0  0
 18 21  1  0  0  0  0
 21 22  1  0  0  0  0
 21 23  1  0  0  0  0
 21 24  1  0  0  0  0
  8 25  1  0  0  0  0
  5 25  1  0  0  0  0
 25 26  1  0  0  0  0
 26 27  1  0  0  0  0
 27 28  1  0  0  0  0
 28 29  1  0  0  0  0
 29 30  1  0  0  0  0
 30 31  1  0  0  0  0
 27 31  1  0  0  0  0
M  END
> <ID>
CPD_2147

$$$$
CPD_2152
  Mrv1822 09091914012D          

 21 23  0  0  0  0            999 V2000
    3.5386    0.9963    0.0000 O   0  0  0  0  0  0  0  0  0  0  0  0
    3.5386    0.1713    0.0000 C   0  0  0  0  0  0  0  0  0  0  0  0
    4.2531   -0.2412    0.0000 C   0  0  0  0  0  0  0  0  0  0  0  0
    4.2531   -1.0662    0.0000 C   0  0  0  0  0  0  0  0  0  0  0  0
    4.9205   -1.5511    0.0000 C   0  0  0  0  0  0  0  0  0  0  0  0
    4.6656   -2.3357    0.0000 C   0  0  0  0  0  0  0  0  0  0  0  0
    3.8406   -2.3357    0.0000 N   0  0  0  0  0  0  0  0  0  0  0  0
    3.5856   -1.5511    0.0000 N   0  0  0  0  0  0  0  0  0  0  0  0
    5.1505   -3.0031    0.0000 C   0  0  0  0  0  0  0  0  0  0  0  0
    5.9755   -3.0031    0.0000 C   0  0  0  0  0  0  0  0  0  0  0  0
    6.2304   -3.7878    0.0000 C   0  0  0  0  0  0  0  0  0  0  0  0
    5.5630   -4.2727    0.0000 N   0  0  0  0  0  0  0  0  0  0  0  0
    5.5630   -5.0977    0.0000 C   0  0  0  0  0  0  0  0  0  0  0  0
    4.8485   -5.5102    0.0000 C   0  0  0  0  0  0  0  0  0  0  0  0
    4.8485   -6.3352    0.0000 C   0  0  0  0  0  0  0  0  0  0  0  0
    4.1341   -6.7477    0.0000 C   0  0  0  0  0  0  0  0  0  0  0  0
    3.4196   -6.3352    0.0000 C   0  0  0  0  0  0  0  0  0  0  0  0
    3.4196   -5.5102    0.0000 C   0  0  0  0  0  0  0  0  0  0  0  0
    2.7051   -5.0977    0.0000 Cl  0  0  0  0  0  0  0  0  0  0  0  0
    4.1341   -5.0977    0.0000 C   0  0  0  0  0  0  0  0  0  0  0  0
    4.8956   -3.7878    0.0000 C   0  0  0  0  0  0  0  0  0  0  0  0
  1  2  1  0  0  0  0
  2  3  1  0  0  0  0
  3  4  1  0  0  0  0
  4  5  2  0  0  0  0
  5  6  1  0  0  0  0
  6  7  2  0  0  0  0
  7  8  1  0  0  0  0
  4  8  1  0  0  0  0
  6  9  1  0  0  0  0
  9 10  1  0  0  0  0
 10 11  1  0  0  0  0
 11 12  1  0  0  0  0
 12 13  1  0  0  0  0
 13 14  1  0  0  0  0
 14 15  2  0  0  0  0
 15 16  1  0  0  0  0
 16 17  2  0  0  0  0
 17 18  1  0  0  0  0
 18 19  1  0  0  0  0
 18 20  2  0  0  0  0
 14 20  1  0  0  0  0
 12 21  1  0  0  0  0
  9 21  1  0  0  0  0
M  END
> <ID>
CPD_2152

$$$$
CPD_2157
  Mrv1822 09091914012D          

 27 29  0  0  1  0            999 V2000
   -0.6196   -3.2762    0.0000 C   0  0  0  0  0  0  0  0  0  0  0  0
    0.1650   -3.0212    0.0000 C   0  0  0  0  0  0  0  0  0  0  0  0
    0.3365   -2.2143    0.0000 O   0  0  0  0  0  0  0  0  0  0  0  0
    1.1211   -1.9593    0.0000 C   0  0  0  0  0  0  0  0  0  0  0  0
    1.7342   -2.5114    0.0000 O   0  0  0  0  0  0  0  0  0  0  0  0
    1.2927   -1.1524    0.0000 C   0  0  2  0  0  0  0  0  0  0  0  0
    0.7406   -0.5393    0.0000 C   0  0  1  0  0  0  0  0  0  0  0  0
   -0.0663   -0.3677    0.0000 C   0  0  0  0  0  0  0  0  0  0  0  0
   -0.1526    0.4527    0.0000 C   0  0  0  0  0  0  0  0  0  0  0  0
    0.6011    0.7883    0.0000 C   0  0  0  0  0  0  0  0  0  0  0  0
    1.1531    0.1752    0.0000 C   0  0  1  0  0  0  0  0  0  0  0  0
    1.9601    0.0037    0.0000 C   0  0  0  0  0  0  0  0  0  0  0  0
    2.0463   -0.8168    0.0000 N   0  0  0  0  0  0  0  0  0  0  0  0
    2.7608   -1.2293    0.0000 C   0  0  0  0  0  0  0  0  0  0  0  0
    3.4753   -0.8168    0.0000 C   0  0  0  0  0  0  0  0  0  0  0  0
    4.1898   -1.2293    0.0000 C   0  0  0  0  0  0  0  0  0  0  0  0
    4.9042   -0.8168    0.0000 C   0  0  0  0  0  0  0  0  0  0  0  0
    5.6187   -1.2293    0.0000 C   0  0  0  0  0  0  0  0  0  0  0  0
    5.6187   -2.0543    0.0000 O   0  0  0  0  0  0  0  0  0  0  0  0
    6.3332   -0.8168    0.0000 N   0  0  0  0  0  0  0  0  0  0  0  0
    7.0476   -1.2293    0.0000 C   0  0  0  0  0  0  0  0  0  0  0  0
    7.7621   -0.8168    0.0000 C   0  0  0  0  0  0  0  0  0  0  0  0
    8.4766   -1.2293    0.0000 C   0  0  0  0  0  0  0  0  0  0  0  0
    8.4766   -2.0543    0.0000 C   0  0  0  0  0  0  0  0  0  0  0  0
    7.7621   -2.4668    0.0000 C   0  0  0  0  0  0  0  0  0  0  0  0
    7.7621   -3.2918    0.0000 O   0  0  0  0  0  0  0  0  0  0  0  0
    7.0476   -2.0543    0.0000 C   0  0  0  0  0  0  0  0  0  0  0  0
  1  2  1  0  0  0  0
  2  3  1  0  0  0  0
  3  4  1  0  0  0  0
  4  5  2  0  0  0  0
  6  4  1  6  0  0  0
  7  6  1  0  0  0  0
  7  8  1  1  0  0  0
  8  9  1  0  0  0  0
  9 10  1  0  0  0  0
 11 10  1  1  0  0  0
  7 11  1  0  0  0  0
 11 12  1  0  0  0  0
 12 13  1  0  0  0  0
  6 13  1  0  0  0  0
 13 14  1  0  0  0  0
 14 15  1  0  0  0  0
 15 16  1  0  0  0  0
 16 17  1  0  0  0  0
 17 18  1  0  0  0  0
 18 19  2  0  0  0  0
 18 20  1  0  0  0  0
 20 21  1  0  0  0  0
 21 22  2  0  0  0  0
 22 23  1  0  0  0  0
 23 24  2  0  0  0  0
 24 25  1  0  0  0  0
 25 26  1  0  0  0  0
 25 27  2  0  0  0  0
 21 27  1  0  0  0  0
M  END
> <ID>
CPD_2157

$$$$
CPD_2162
  Mrv1822 09091914012D          

 19 21  0  0  0  0            999 V2000
    2.7845    0.6979    0.0000 C   0  0  0  0  0  0  0  0  0  0  0  0
    2.0701    1.1104    0.0000 C   0  0  0  0  0  0  0  0  0  0  0  0
    1.3556    0.6979    0.0000 N   0  0  0  0  0  0  0  0  0  0  0  0
    0.6411    1.1104    0.0000 C   0  0  0  0  0  0  0  0  0  0  0  0
   -0.1435    0.8555    0.0000 N   0  0  0  0  0  0  0  0  0  0  0  0
   -0.6284    1.5229    0.0000 C   0  0  0  0  0  0  0  0  0  0  0  0
   -0.1435    2.1904    0.0000 C   0  0  0  0  0  0  0  0  0  0  0  0
   -0.3984    2.9750    0.0000 N   0  0  0  0  0  0  0  0  0  0  0  0
    0.1536    3.5881    0.0000 C   0  0  0  0  0  0  0  0  0  0  0  0
    0.1104    4.4120    0.0000 C   0  0  0  0  0  0  0  0  0  0  0  0
    0.9343    4.4551    0.0000 N   0  0  0  0  0  0  0  0  0  0  0  0
    0.9775    3.6313    0.0000 C   0  0  0  0  0  0  0  0  0  0  0  0
    1.4863    5.0682    0.0000 C   0  0  0  0  0  0  0  0  0  0  0  0
    2.0383    5.6813    0.0000 C   0  0  0  0  0  0  0  0  0  0  0  0
    2.0994    4.5162    0.0000 C   0  0  0  0  0  0  0  0  0  0  0  0
    0.8732    5.6203    0.0000 C   0  0  0  0  0  0  0  0  0  0  0  0
    0.6411    1.9354    0.0000 N   0  0  0  0  0  0  0  0  0  0  0  0
    1.3556    2.3479    0.0000 C   0  0  0  0  0  0  0  0  0  0  0  0
    2.0701    1.9354    0.0000 C   0  0  0  0  0  0  0  0  0  0  0  0
  1  2  1  0  0  0  0
  2  3  2  0  0  0  0
  3  4  1  0  0  0  0
  4  5  2  0  0  0  0
  5  6  1  0  0  0  0
  6  7  2  0  0  0  0
  7  8  1  0  0  0  0
  8  9  1  0  0  0  0
  9 10  1  0  0  0  0
 10 11  1  0  0  0  0
 11 12  1  0  0  0  0
  9 12  1  0  0  0  0
 11 13  1  0  0  0  0
 13 14  1  0  0  0  0
 13 15  1  0  0  0  0
 13 16  1  0  0  0  0
  7 17  1  0  0  0  0
  4 17  1  0  0  0  0
 17 18  1  0  0  0  0
 18 19  2  0  0  0  0
  2 19  1  0  0  0  0
M  END
> <ID>
CPD_2162

$$$$
CPD_2167
  Mrv1822 09091914012D          

 23 25  0  0  0  0            999 V2000
   -1.7249   -4.2959    0.0000 C   0  0  0  0  0  0  0  0  0  0  0  0
   -1.0104   -3.8834    0.0000 C   0  0  0  0  0  0  0  0  0  0  0  0
   -0.5979   -4.5978    0.0000 C   0  0  0  0  0  0  0  0  0  0  0  0
   -1.4229   -3.1689    0.0000 C   0  0  0  0  0  0  0  0  0  0  0  0
   -0.2959   -3.4709    0.0000 N   0  0  0  0  0  0  0  0  0  0  0  0
   -0.0824   -2.6740    0.0000 C   0  0  0  0  0  0  0  0  0  0  0  0
    0.7145   -2.8875    0.0000 C   0  0  0  0  0  0  0  0  0  0  0  0
    0.5009   -3.6844    0.0000 C   0  0  0  0  0  0  0  0  0  0  0  0
    1.4289   -2.4750    0.0000 N   0  0  0  0  0  0  0  0  0  0  0  0
    1.4289   -1.6500    0.0000 C   0  0  0  0  0  0  0  0  0  0  0  0
    0.7145   -1.2375    0.0000 C   0  0  0  0  0  0  0  0  0  0  0  0
    0.7145   -0.4125    0.0000 C   0  0  0  0  0  0  0  0  0  0  0  0
    1.4289    0.0000    0.0000 N   0  0  0  0  0  0  0  0  0  0  0  0
    2.1434   -0.4125    0.0000 C   0  0  0  0  0  0  0  0  0  0  0  0
    2.8579    0.0000    0.0000 C   0  0  0  0  0  0  0  0  0  0  0  0
    3.5724   -0.4125    0.0000 C   0  0  0  0  0  0  0  0  0  0  0  0
    3.5724   -1.2375    0.0000 C   0  0  0  0  0  0  0  0  0  0  0  0
    2.8579   -1.6500    0.0000 C   0  0  0  0  0  0  0  0  0  0  0  0
    2.1434   -1.2375    0.0000 C   0  0  0  0  0  0  0  0  0  0  0  0
    0.0000   -1.6500    0.0000 C   0  0  0  0  0  0  0  0  0  0  0  0
   -0.7145   -2.0625    0.0000 F   0  0  0  0  0  0  0  0  0  0  0  0
   -0.4125   -0.9355    0.0000 F   0  0  0  0  0  0  0  0  0  0  0  0
    0.4125   -2.3645    0.0000 F   0  0  0  0  0  0  0  0  0  0  0  0
  1  2  1  0  0  0  0
  2  3  1  0  0  0  0
  2  4  1  0  0  0  0
  2  5  1  0  0  0  0
  5  6  1  0  0  0  0
  6  7  1  0  0  0  0
  7  8  1  0  0  0  0
  5  8  1  0  0  0  0
  7  9  1  0  0  0  0
  9 10  1  0  0  0  0
 10 11  2  0  0  0  0
 11 12  1  0  0  0  0
 12 13  2  0  0  0  0
 13 14  1  0  0  0  0
 14 15  2  0  0  0  0
 15 16  1  0  0  0  0
 16 17  2  0  0  0  0
 17 18  1  0  0  0  0
 18 19  2  0  0  0  0
 10 19  1  0  0  0  0
 14 19  1  0  0  0  0
 11 20  1  0  0  0  0
 20 21  1  0  0  0  0
 20 22  1  0  0  0  0
 20 23  1  0  0  0  0
M  END
> <ID>
CPD_2167

$$$$
CPD_2172
  Mrv1822 09091914012D          

 20 22  0  0  0  0            999 V2000
    1.9341    0.2917    0.0000 C   0  0  0  0  0  0  0  0  0  0  0  0
    1.9341   -0.5333    0.0000 C   0  0  0  0  0  0  0  0  0  0  0  0
    1.1091   -0.5333    0.0000 C   0  0  0  0  0  0  0  0  0  0  0  0
    2.7591   -0.5333    0.0000 C   0  0  0  0  0  0  0  0  0  0  0  0
    1.9341   -1.3583    0.0000 N   0  0  0  0  0  0  0  0  0  0  0  0
    2.5175   -1.9417    0.0000 C   0  0  0  0  0  0  0  0  0  0  0  0
    1.9341   -2.5250    0.0000 C   0  0  0  0  0  0  0  0  0  0  0  0
    1.3508   -1.9417    0.0000 C   0  0  0  0  0  0  0  0  0  0  0  0
    1.9341   -3.3500    0.0000 N   0  0  0  0  0  0  0  0  0  0  0  0
    1.2197   -3.7625    0.0000 C   0  0  0  0  0  0  0  0  0  0  0  0
    1.2197   -4.5875    0.0000 C   0  0  0  0  0  0  0  0  0  0  0  0
    0.5052   -5.0000    0.0000 C   0  0  0  0  0  0  0  0  0  0  0  0
   -0.2093   -4.5875    0.0000 C   0  0  0  0  0  0  0  0  0  0  0  0
   -0.2093   -3.7625    0.0000 C   0  0  0  0  0  0  0  0  0  0  0  0
    0.5052   -3.3500    0.0000 C   0  0  0  0  0  0  0  0  0  0  0  0
    1.9341   -5.0000    0.0000 C   0  0  0  0  0  0  0  0  0  0  0  0
    2.6878   -4.6645    0.0000 C   0  0  0  0  0  0  0  0  0  0  0  0
    3.2399   -5.2776    0.0000 N   0  0  0  0  0  0  0  0  0  0  0  0
    2.8274   -5.9921    0.0000 C   0  0  0  0  0  0  0  0  0  0  0  0
    2.0204   -5.8205    0.0000 N   0  0  0  0  0  0  0  0  0  0  0  0
  1  2  1  0  0  0  0
  2  3  1  0  0  0  0
  2  4  1  0  0  0  0
  2  5  1  0  0  0  0
  5  6  1  0  0  0  0
  6  7  1  0  0  0  0
  7  8  1  0  0  0  0
  5  8  1  0  0  0  0
  7  9  1  0  0  0  0
  9 10  1  0  0  0  0
 10 11  2  0  0  0  0
 11 12  1  0  0  0  0
 12 13  2  0  0  0  0
 13 14  1  0  0  0  0
 14 15  2  0  0  0  0
 10 15  1  0  0  0  0
 11 16  1  0  0  0  0
 16 17  2  0  0  0  0
 17 18  1  0  0  0  0
 18 19  1  0  0  0  0
 19 20  2  0  0  0  0
 16 20  1  0  0  0  0
M  END
> <ID>
CPD_2172

$$$$
CPD_2177
  Mrv1822 09091914012D          

 22 23  0  0  0  0            999 V2000
    1.9341    0.2917    0.0000 C   0  0  0  0  0  0  0  0  0  0  0  0
    1.9341   -0.5333    0.0000 C   0  0  0  0  0  0  0  0  0  0  0  0
    1.1091   -0.5333    0.0000 C   0  0  0  0  0  0  0  0  0  0  0  0
    2.7591   -0.5333    0.0000 C   0  0  0  0  0  0  0  0  0  0  0  0
    1.9341   -1.3583    0.0000 N   0  0  0  0  0  0  0  0  0  0  0  0
    2.5175   -1.9417    0.0000 C   0  0  0  0  0  0  0  0  0  0  0  0
    1.9341   -2.5250    0.0000 C   0  0  0  0  0  0  0  0  0  0  0  0
    1.3508   -1.9417    0.0000 C   0  0  0  0  0  0  0  0  0  0  0  0
    1.9341   -3.3500    0.0000 N   0  0  0  0  0  0  0  0  0  0  0  0
    1.2197   -3.7625    0.0000 C   0  0  0  0  0  0  0  0  0  0  0  0
    1.2197   -4.5875    0.0000 C   0  0  0  0  0  0  0  0  0  0  0  0
    1.9341   -5.0000    0.0000 F   0  0  0  0  0  0  0  0  0  0  0  0
    0.5052   -5.0000    0.0000 C   0  0  0  0  0  0  0  0  0  0  0  0
    0.5052   -5.8250    0.0000 Cl  0  0  0  0  0  0  0  0  0  0  0  0
   -0.2093   -4.5875    0.0000 C   0  0  0  0  0  0  0  0  0  0  0  0
   -0.9237   -5.0000    0.0000 F   0  0  0  0  0  0  0  0  0  0  0  0
   -0.2093   -3.7625    0.0000 C   0  0  0  0  0  0  0  0  0  0  0  0
   -0.9237   -3.3500    0.0000 C   0  0  0  0  0  0  0  0  0  0  0  0
   -0.9237   -2.5250    0.0000 O   0  0  0  0  0  0  0  0  0  0  0  0
   -1.6382   -3.7625    0.0000 O   0  0  0  0  0  0  0  0  0  0  0  0
    0.5052   -3.3500    0.0000 C   0  0  0  0  0  0  0  0  0  0  0  0
    0.5052   -2.5250    0.0000 F   0  0  0  0  0  0  0  0  0  0  0  0
  1  2  1  0  0  0  0
  2  3  1  0  0  0  0
  2  4  1  0  0  0  0
  2  5  1  0  0  0  0
  5  6  1  0  0  0  0
  6  7  1  0  0  0  0
  7  8  1  0  0  0  0
  5  8  1  0  0  0  0
  7  9  1  0  0  0  0
  9 10  1  0  0  0  0
 10 11  2  0  0  0  0
 11 12  1  0  0  0  0
 11 13  1  0  0  0  0
 13 14  1  0  0  0  0
 13 15  2  0  0  0  0
 15 16  1  0  0  0  0
 15 17  1  0  0  0  0
 17 18  1  0  0  0  0
 18 19  1  0  0  0  0
 18 20  2  0  0  0  0
 17 21  2  0  0  0  0
 10 21  1  0  0  0  0
 21 22  1  0  0  0  0
M  END
> <ID>
CPD_2177

$$$$
CPD_2182
  Mrv1822 09091914012D          

 24 25  0  0  0  0            999 V2000
   -1.4289   11.3036    0.0000 C   0  0  0  0  0  0  0  0  0  0  0  0
   -0.7145   10.8911    0.0000 O   0  0  0  0  0  0  0  0  0  0  0  0
   -0.7145   10.0661    0.0000 C   0  0  0  0  0  0  0  0  0  0  0  0
   -0.0000    9.6536    0.0000 C   0  0  0  0  0  0  0  0  0  0  0  0
   -0.0000    8.8286    0.0000 C   0  0  0  0  0  0  0  0  0  0  0  0
   -0.7145    8.4161    0.0000 C   0  0  0  0  0  0  0  0  0  0  0  0
   -0.7145    7.5911    0.0000 C   0  0  0  0  0  0  0  0  0  0  0  0
   -1.4289    7.1786    0.0000 C   0  0  0  0  0  0  0  0  0  0  0  0
   -2.1434    7.5911    0.0000 O   0  0  0  0  0  0  0  0  0  0  0  0
   -0.0000    7.1786    0.0000 N   0  0  0  0  0  0  0  0  0  0  0  0
   -0.0000    6.3536    0.0000 S   0  0  0  0  0  0  0  0  0  0  0  0
   -0.8250    6.3536    0.0000 O   0  0  0  0  0  0  0  0  0  0  0  0
    0.8250    6.3536    0.0000 O   0  0  0  0  0  0  0  0  0  0  0  0
   -0.0000    5.5286    0.0000 C   0  0  0  0  0  0  0  0  0  0  0  0
    0.6674    5.0437    0.0000 C   0  0  0  0  0  0  0  0  0  0  0  0
    0.4125    4.2590    0.0000 O   0  0  0  0  0  0  0  0  0  0  0  0
   -0.4125    4.2590    0.0000 C   0  0  0  0  0  0  0  0  0  0  0  0
   -0.6674    5.0437    0.0000 C   0  0  0  0  0  0  0  0  0  0  0  0
   -1.4289    8.8286    0.0000 C   0  0  0  0  0  0  0  0  0  0  0  0
   -2.1434    8.4161    0.0000 O   0  0  0  0  0  0  0  0  0  0  0  0
   -2.8579    8.8286    0.0000 C   0  0  0  0  0  0  0  0  0  0  0  0
   -1.4289    9.6536    0.0000 C   0  0  0  0  0  0  0  0  0  0  0  0
   -2.1434   10.0661    0.0000 O   0  0  0  0  0  0  0  0  0  0  0  0
   -2.1434   10.8911    0.0000 C   0  0  0  0  0  0  0  0  0  0  0  0
  1  2  1  0  0  0  0
  2  3  1  0  0  0  0
  3  4  2  0  0  0  0
  4  5  1  0  0  0  0
  5  6  2  0  0  0  0
  6  7  1  0  0  0  0
  7  8  1  0  0  0  0
  8  9  1  0  0  0  0
  7 10  1  0  0  0  0
 10 11  1  0  0  0  0
 11 12  2  0  0  0  0
 11 13  2  0  0  0  0
 11 14  1  0  0  0  0
 14 15  2  0  0  0  0
 15 16  1  0  0  0  0
 16 17  1  0  0  0  0
 17 18  2  0  0  0  0
 14 18  1  0  0  0  0
  6 19  1  0  0  0  0
 19 20  1  0  0  0  0
 20 21  1  0  0  0  0
 19 22  2  0  0  0  0
  3 22  1  0  0  0  0
 22 23  1  0  0  0  0
 23 24  1  0  0  0  0
M  END
> <ID>
CPD_2182

$$$$
CPD_2187
  Mrv1822 09091914012D          

 26 28  0  0  0  0            999 V2000
   -2.7512    4.7652    0.0000 C   0  0  0  0  0  0  0  0  0  0  0  0
   -3.4656    4.3527    0.0000 C   0  0  0  0  0  0  0  0  0  0  0  0
   -3.4656    3.5277    0.0000 C   0  0  0  0  0  0  0  0  0  0  0  0
   -2.7512    3.1152    0.0000 N   0  0  0  0  0  0  0  0  0  0  0  0
   -2.7512    2.2902    0.0000 S   0  0  0  0  0  0  0  0  0  0  0  0
   -1.9262    2.2902    0.0000 O   0  0  0  0  0  0  0  0  0  0  0  0
   -3.5762    2.2902    0.0000 O   0  0  0  0  0  0  0  0  0  0  0  0
   -2.7512    1.4652    0.0000 C   0  0  0  0  0  0  0  0  0  0  0  0
   -2.0837    0.9803    0.0000 C   0  0  0  0  0  0  0  0  0  0  0  0
   -2.3387    0.1956    0.0000 O   0  0  0  0  0  0  0  0  0  0  0  0
   -3.1637    0.1956    0.0000 C   0  0  0  0  0  0  0  0  0  0  0  0
   -3.4186    0.9803    0.0000 C   0  0  0  0  0  0  0  0  0  0  0  0
   -4.1801    3.1152    0.0000 C   0  0  0  0  0  0  0  0  0  0  0  0
   -4.8946    3.5277    0.0000 C   0  0  0  0  0  0  0  0  0  0  0  0
   -4.8946    4.3527    0.0000 C   0  0  0  0  0  0  0  0  0  0  0  0
   -5.6091    4.7652    0.0000 O   0  0  0  0  0  0  0  0  0  0  0  0
   -5.6091    5.5902    0.0000 C   0  0  0  0  0  0  0  0  0  0  0  0
   -6.3235    6.0027    0.0000 C   0  0  0  0  0  0  0  0  0  0  0  0
   -7.0772    5.6671    0.0000 C   0  0  0  0  0  0  0  0  0  0  0  0
   -7.6292    6.2802    0.0000 C   0  0  0  0  0  0  0  0  0  0  0  0
   -7.2167    6.9947    0.0000 C   0  0  0  0  0  0  0  0  0  0  0  0
   -6.4098    6.8232    0.0000 O   0  0  0  0  0  0  0  0  0  0  0  0
   -7.5523    7.7484    0.0000 C   0  0  0  0  0  0  0  0  0  0  0  0
   -8.3728    7.8346    0.0000 O   0  0  0  0  0  0  0  0  0  0  0  0
   -7.0674    8.4158    0.0000 O   0  0  0  0  0  0  0  0  0  0  0  0
   -4.1801    4.7652    0.0000 C   0  0  0  0  0  0  0  0  0  0  0  0
  1  2  1  0  0  0  0
  2  3  2  0  0  0  0
  3  4  1  0  0  0  0
  4  5  1  0  0  0  0
  5  6  2  0  0  0  0
  5  7  2  0  0  0  0
  5  8  1  0  0  0  0
  8  9  2  0  0  0  0
  9 10  1  0  0  0  0
 10 11  1  0  0  0  0
 11 12  2  0  0  0  0
  8 12  1  0  0  0  0
  3 13  1  0  0  0  0
 13 14  2  0  0  0  0
 14 15  1  0  0  0  0
 15 16  1  0  0  0  0
 16 17  1  0  0  0  0
 17 18  1  0  0  0  0
 18 19  2  0  0  0  0
 19 20  1  0  0  0  0
 20 21  2  0  0  0  0
 21 22  1  0  0  0  0
 18 22  1  0  0  0  0
 21 23  1  0  0  0  0
 23 24  1  0  0  0  0
 23 25  2  0  0  0  0
 15 26  2  0  0  0  0
  2 26  1  0  0  0  0
M  END
> <ID>
CPD_2187

$$$$
CPD_2192
  Mrv1822 09091914012D          

 28 31  0  0  0  0            999 V2000
    2.5110   -1.3771    0.0000 O   0  0  0  0  0  0  0  0  0  0  0  0
    1.7264   -1.6320    0.0000 C   0  0  0  0  0  0  0  0  0  0  0  0
    1.4715   -2.4167    0.0000 N   0  0  0  0  0  0  0  0  0  0  0  0
    0.6465   -2.4167    0.0000 C   0  0  0  0  0  0  0  0  0  0  0  0
    0.1616   -3.0841    0.0000 N   0  0  0  0  0  0  0  0  0  0  0  0
    0.4971   -3.8378    0.0000 S   0  0  0  0  0  0  0  0  0  0  0  0
    1.2508   -3.5022    0.0000 O   0  0  0  0  0  0  0  0  0  0  0  0
   -0.2566   -4.1733    0.0000 O   0  0  0  0  0  0  0  0  0  0  0  0
    0.8327   -4.5915    0.0000 C   0  0  0  0  0  0  0  0  0  0  0  0
    1.6396   -4.7630    0.0000 C   0  0  0  0  0  0  0  0  0  0  0  0
    1.7259   -5.5835    0.0000 O   0  0  0  0  0  0  0  0  0  0  0  0
    0.9722   -5.9190    0.0000 C   0  0  0  0  0  0  0  0  0  0  0  0
    0.4202   -5.3059    0.0000 C   0  0  0  0  0  0  0  0  0  0  0  0
    0.3915   -1.6320    0.0000 N   0  0  0  0  0  0  0  0  0  0  0  0
    1.0590   -1.1471    0.0000 C   0  0  0  0  0  0  0  0  0  0  0  0
    0.6540   -0.4284    0.0000 C   0  0  0  0  0  0  0  0  0  0  0  0
   -0.1710   -0.4197    0.0000 C   0  0  0  0  0  0  0  0  0  0  0  0
   -0.5909   -1.1298    0.0000 C   0  0  0  0  0  0  0  0  0  0  0  0
   -1.4159   -1.1212    0.0000 C   0  0  0  0  0  0  0  0  0  0  0  0
   -1.8209   -0.4025    0.0000 C   0  0  0  0  0  0  0  0  0  0  0  0
   -1.4009    0.3077    0.0000 C   0  0  0  0  0  0  0  0  0  0  0  0
   -0.5760    0.2990    0.0000 C   0  0  0  0  0  0  0  0  0  0  0  0
    1.4640   -0.4284    0.0000 C   0  0  0  0  0  0  0  0  0  0  0  0
    1.0440    0.2817    0.0000 C   0  0  0  0  0  0  0  0  0  0  0  0
    1.4490    1.0005    0.0000 C   0  0  0  0  0  0  0  0  0  0  0  0
    2.2740    1.0091    0.0000 C   0  0  0  0  0  0  0  0  0  0  0  0
    2.6939    0.2990    0.0000 C   0  0  0  0  0  0  0  0  0  0  0  0
    2.2889   -0.4197    0.0000 C   0  0  0  0  0  0  0  0  0  0  0  0
  1  2  2  0  0  0  0
  2  3  1  0  0  0  0
  3  4  2  0  0  0  0
  4  5  1  0  0  0  0
  5  6  1  0  0  0  0
  6  7  2  0  0  0  0
  6  8  2  0  0  0  0
  6  9  1  0  0  0  0
  9 10  2  0  0  0  0
 10 11  1  0  0  0  0
 11 12  1  0  0  0  0
 12 13  2  0  0  0  0
  9 13  1  0  0  0  0
  4 14  1  0  0  0  0
 14 15  1  0  0  0  0
  2 15  1  0  0  0  0
 15 16  1  0  0  0  0
 16 17  1  0  0  0  0
 17 18  2  0  0  0  0
 18 19  1  0  0  0  0
 19 20  2  0  0  0  0
 20 21  1  0  0  0  0
 21 22  2  0  0  0  0
 17 22  1  0  0  0  0
 15 23  1  0  0  0  0
 23 24  2  0  0  0  0
 24 25  1  0  0  0  0
 25 26  2  0  0  0  0
 26 27  1  0  0  0  0
 27 28  2  0  0  0  0
 23 28  1  0  0  0  0
M  END
> <ID>
CPD_2192

$$$$
CPD_2197
  Mrv1822 09091914012D          

 24 27  0  0  0  0            999 V2000
   -6.1403    0.5007    0.0000 N   0  0  0  0  0  0  0  0  0  0  0  0
   -5.5569   -0.0827    0.0000 C   0  0  0  0  0  0  0  0  0  0  0  0
   -4.7601    0.1309    0.0000 N   0  0  0  0  0  0  0  0  0  0  0  0
   -4.1767   -0.4525    0.0000 C   0  0  0  0  0  0  0  0  0  0  0  0
   -4.3902   -1.2494    0.0000 C   0  0  0  0  0  0  0  0  0  0  0  0
   -5.1871   -1.4629    0.0000 C   0  0  0  0  0  0  0  0  0  0  0  0
   -5.7705   -0.8795    0.0000 C   0  0  0  0  0  0  0  0  0  0  0  0
   -6.5674   -1.0931    0.0000 S   0  0  0  0  0  0  0  0  0  0  0  0
   -6.3538   -1.8900    0.0000 O   0  0  0  0  0  0  0  0  0  0  0  0
   -6.7809   -0.2962    0.0000 O   0  0  0  0  0  0  0  0  0  0  0  0
   -7.3643   -1.3066    0.0000 N   0  0  0  0  0  0  0  0  0  0  0  0
   -7.5778   -2.1035    0.0000 C   0  0  0  0  0  0  0  0  0  0  0  0
   -8.3747   -2.3170    0.0000 C   0  0  0  0  0  0  0  0  0  0  0  0
   -8.9580   -1.7336    0.0000 O   0  0  0  0  0  0  0  0  0  0  0  0
   -8.7445   -0.9368    0.0000 C   0  0  0  0  0  0  0  0  0  0  0  0
   -7.9476   -0.7232    0.0000 C   0  0  0  0  0  0  0  0  0  0  0  0
   -3.8069   -1.8327    0.0000 N   0  0  0  0  0  0  0  0  0  0  0  0
   -2.9819   -1.8327    0.0000 C   0  0  0  0  0  0  0  0  0  0  0  0
   -2.9819   -2.6577    0.0000 C   0  0  0  0  0  0  0  0  0  0  0  0
   -2.1569   -2.6577    0.0000 O   0  0  0  0  0  0  0  0  0  0  0  0
   -3.8069   -2.6577    0.0000 C   0  0  0  0  0  0  0  0  0  0  0  0
   -2.9819   -3.4827    0.0000 C   0  0  0  0  0  0  0  0  0  0  0  0
   -2.5694   -4.1972    0.0000 C   0  0  0  0  0  0  0  0  0  0  0  0
   -3.3944   -4.1972    0.0000 C   0  0  0  0  0  0  0  0  0  0  0  0
  1  2  1  0  0  0  0
  2  3  2  0  0  0  0
  3  4  1  0  0  0  0
  4  5  2  0  0  0  0
  5  6  1  0  0  0  0
  6  7  2  0  0  0  0
  2  7  1  0  0  0  0
  7  8  1  0  0  0  0
  8  9  2  0  0  0  0
  8 10  2  0  0  0  0
  8 11  1  0  0  0  0
 11 12  1  0  0  0  0
 12 13  1  0  0  0  0
 13 14  1  0  0  0  0
 14 15  1  0  0  0  0
 15 16  1  0  0  0  0
 11 16  1  0  0  0  0
  5 17  1  0  0  0  0
 17 18  1  0  0  0  0
 18 19  1  0  0  0  0
 19 20  1  0  0  0  0
 19 21  1  0  0  0  0
 17 21  1  0  0  0  0
 19 22  1  0  0  0  0
 22 23  1  0  0  0  0
 23 24  1  0  0  0  0
 22 24  1  0  0  0  0
M  END
> <ID>
CPD_2197

$$$$
CPD_2202
  Mrv1822 09091914012D          

 31 34  0  0  0  0            999 V2000
    1.2367    9.3488    0.0000 O   0  0  0  0  0  0  0  0  0  0  0  0
    0.4398    9.5624    0.0000 C   0  0  0  0  0  0  0  0  0  0  0  0
    0.2263   10.3592    0.0000 O   0  0  0  0  0  0  0  0  0  0  0  0
   -0.1436    8.9790    0.0000 C   0  0  0  0  0  0  0  0  0  0  0  0
   -0.9405    9.1925    0.0000 N   0  0  0  0  0  0  0  0  0  0  0  0
   -1.1540    9.9894    0.0000 C   0  0  0  0  0  0  0  0  0  0  0  0
   -1.9509   10.2029    0.0000 C   0  0  0  0  0  0  0  0  0  0  0  0
   -2.5342    9.6196    0.0000 C   0  0  0  0  0  0  0  0  0  0  0  0
   -3.3311    9.8331    0.0000 C   0  0  0  0  0  0  0  0  0  0  0  0
   -3.5446   10.6300    0.0000 C   0  0  0  0  0  0  0  0  0  0  0  0
   -4.3415   10.8435    0.0000 Cl  0  0  0  0  0  0  0  0  0  0  0  0
   -2.9613   11.2134    0.0000 C   0  0  0  0  0  0  0  0  0  0  0  0
   -2.1644   10.9998    0.0000 C   0  0  0  0  0  0  0  0  0  0  0  0
   -1.5810   11.5832    0.0000 Cl  0  0  0  0  0  0  0  0  0  0  0  0
   -1.5238    8.6092    0.0000 S   0  0  0  0  0  0  0  0  0  0  0  0
   -2.1072    8.0258    0.0000 O   0  0  0  0  0  0  0  0  0  0  0  0
   -2.1072    9.1925    0.0000 O   0  0  0  0  0  0  0  0  0  0  0  0
   -0.9405    8.0258    0.0000 C   0  0  0  0  0  0  0  0  0  0  0  0
   -0.1436    8.2393    0.0000 C   0  0  0  0  0  0  0  0  0  0  0  0
    0.4398    7.6560    0.0000 C   0  0  0  0  0  0  0  0  0  0  0  0
    0.2263    6.8591    0.0000 C   0  0  0  0  0  0  0  0  0  0  0  0
   -0.5706    6.6455    0.0000 C   0  0  0  0  0  0  0  0  0  0  0  0
   -1.1540    7.2289    0.0000 C   0  0  0  0  0  0  0  0  0  0  0  0
    0.8096    6.2757    0.0000 N   0  0  0  0  0  0  0  0  0  0  0  0
    1.6346    6.2757    0.0000 C   0  0  0  0  0  0  0  0  0  0  0  0
    1.6346    5.4507    0.0000 C   0  0  0  0  0  0  0  0  0  0  0  0
    2.4596    5.4507    0.0000 O   0  0  0  0  0  0  0  0  0  0  0  0
    0.8096    5.4507    0.0000 C   0  0  0  0  0  0  0  0  0  0  0  0
    1.6346    4.6257    0.0000 C   0  0  0  0  0  0  0  0  0  0  0  0
    2.0471    3.9112    0.0000 C   0  0  0  0  0  0  0  0  0  0  0  0
    1.2221    3.9112    0.0000 C   0  0  0  0  0  0  0  0  0  0  0  0
  1  2  1  0  0  0  0
  2  3  2  0  0  0  0
  2  4  1  0  0  0  0
  4  5  1  0  0  0  0
  5  6  1  0  0  0  0
  6  7  1  0  0  0  0
  7  8  2  0  0  0  0
  8  9  1  0  0  0  0
  9 10  2  0  0  0  0
 10 11  1  0  0  0  0
 10 12  1  0  0  0  0
 12 13  2  0  0  0  0
  7 13  1  0  0  0  0
 13 14  1  0  0  0  0
  5 15  1  0  0  0  0
 15 16  2  0  0  0  0
 15 17  2  0  0  0  0
 15 18  1  0  0  0  0
 18 19  2  0  0  0  0
 19 20  1  0  0  0  0
 20 21  2  0  0  0  0
 21 22  1  0  0  0  0
 22 23  2  0  0  0  0
 18 23  1  0  0  0  0
 21 24  1  0  0  0  0
 24 25  1  0  0  0  0
 25 26  1  0  0  0  0
 26 27  1  0  0  0  0
 26 28  1  0  0  0  0
 24 28  1  0  0  0  0
 26 29  1  0  0  0  0
 29 30  1  0  0  0  0
 30 31  1  0  0  0  0
 29 31  1  0  0  0  0
M  END
> <ID>
CPD_2202

$$$$
CPD_2207
  Mrv1822 09091914012D          

 19 22  0  0  0  0            999 V2000
    2.4454    5.6645    0.0000 N   0  0  0  0  0  0  0  0  0  0  0  0
    1.7309    5.2520    0.0000 C   0  0  0  0  0  0  0  0  0  0  0  0
    1.7309    4.4270    0.0000 C   0  0  0  0  0  0  0  0  0  0  0  0
    1.0164    4.0145    0.0000 N   0  0  0  0  0  0  0  0  0  0  0  0
    0.3020    4.4270    0.0000 C   0  0  0  0  0  0  0  0  0  0  0  0
   -0.4125    4.0145    0.0000 N   0  0  0  0  0  0  0  0  0  0  0  0
   -0.4125    3.1895    0.0000 C   0  0  0  0  0  0  0  0  0  0  0  0
    0.0000    2.4750    0.0000 C   0  0  0  0  0  0  0  0  0  0  0  0
   -0.8250    2.4750    0.0000 C   0  0  0  0  0  0  0  0  0  0  0  0
    0.3020    5.2520    0.0000 C   0  0  0  0  0  0  0  0  0  0  0  0
    1.0164    5.6645    0.0000 C   0  0  0  0  0  0  0  0  0  0  0  0
   -0.4125    5.6645    0.0000 N   0  0  0  0  0  0  0  0  0  0  0  0
   -1.2094    5.4509    0.0000 C   0  0  0  0  0  0  0  0  0  0  0  0
   -1.4229    6.2478    0.0000 C   0  0  0  0  0  0  0  0  0  0  0  0
   -2.2198    6.0343    0.0000 O   0  0  0  0  0  0  0  0  0  0  0  0
   -0.6260    6.4614    0.0000 C   0  0  0  0  0  0  0  0  0  0  0  0
   -1.6364    7.0447    0.0000 C   0  0  0  0  0  0  0  0  0  0  0  0
   -2.2198    7.6281    0.0000 C   0  0  0  0  0  0  0  0  0  0  0  0
   -1.4229    7.8416    0.0000 C   0  0  0  0  0  0  0  0  0  0  0  0
  1  2  1  0  0  0  0
  2  3  2  0  0  0  0
  3  4  1  0  0  0  0
  4  5  2  0  0  0  0
  5  6  1  0  0  0  0
  6  7  1  0  0  0  0
  7  8  1  0  0  0  0
  8  9  1  0  0  0  0
  7  9  1  0  0  0  0
  5 10  1  0  0  0  0
 10 11  2  0  0  0  0
  2 11  1  0  0  0  0
 10 12  1  0  0  0  0
 12 13  1  0  0  0  0
 13 14  1  0  0  0  0
 14 15  1  0  0  0  0
 14 16  1  0  0  0  0
 12 16  1  0  0  0  0
 14 17  1  0  0  0  0
 17 18  1  0  0  0  0
 18 19  1  0  0  0  0
 17 19  1  0  0  0  0
M  END
> <ID>
CPD_2207

$$$$
CPD_2212
  Mrv1822 09091914012D          

 18 19  0  0  0  0            999 V2000
    1.2095   -0.8815    0.0000 C   0  0  0  0  0  0  0  0  0  0  0  0
    1.8414   -1.4118    0.0000 C   0  0  0  0  0  0  0  0  0  0  0  0
    2.4734   -0.8815    0.0000 C   0  0  0  0  0  0  0  0  0  0  0  0
    1.4289   -2.1263    0.0000 C   0  0  0  0  0  0  0  0  0  0  0  0
    2.2539   -2.1263    0.0000 C   0  0  0  0  0  0  0  0  0  0  0  0
    2.9684   -2.5388    0.0000 N   0  0  0  0  0  0  0  0  0  0  0  0
    2.9684   -3.3638    0.0000 C   0  0  0  0  0  0  0  0  0  0  0  0
    3.6829   -3.7763    0.0000 C   0  0  0  0  0  0  0  0  0  0  0  0
    4.3974   -3.3638    0.0000 F   0  0  0  0  0  0  0  0  0  0  0  0
    3.6829   -4.6013    0.0000 C   0  0  0  0  0  0  0  0  0  0  0  0
    4.3974   -5.0138    0.0000 F   0  0  0  0  0  0  0  0  0  0  0  0
    2.9684   -5.0138    0.0000 C   0  0  0  0  0  0  0  0  0  0  0  0
    2.9684   -5.8388    0.0000 F   0  0  0  0  0  0  0  0  0  0  0  0
    2.2539   -4.6013    0.0000 C   0  0  0  0  0  0  0  0  0  0  0  0
    2.2539   -3.7763    0.0000 C   0  0  0  0  0  0  0  0  0  0  0  0
    1.5395   -3.3638    0.0000 C   0  0  0  0  0  0  0  0  0  0  0  0
    1.5395   -2.5388    0.0000 O   0  0  0  0  0  0  0  0  0  0  0  0
    0.8250   -3.7763    0.0000 O   0  0  0  0  0  0  0  0  0  0  0  0
  1  2  1  0  0  0  0
  2  3  1  0  0  0  0
  2  4  1  0  0  0  0
  4  5  1  0  0  0  0
  2  5  1  0  0  0  0
  5  6  1  0  0  0  0
  6  7  1  0  0  0  0
  7  8  2  0  0  0  0
  8  9  1  0  0  0  0
  8 10  1  0  0  0  0
 10 11  1  0  0  0  0
 10 12  2  0  0  0  0
 12 13  1  0  0  0  0
 12 14  1  0  0  0  0
 14 15  2  0  0  0  0
  7 15  1  0  0  0  0
 15 16  1  0  0  0  0
 16 17  1  0  0  0  0
 16 18  2  0  0  0  0
M  END
> <ID>
CPD_2212

$$$$
CPD_2217
  Mrv1822 09091914012D          

 18 19  0  0  0  0            999 V2000
    2.4734   -0.8815    0.0000 C   0  0  0  0  0  0  0  0  0  0  0  0
    1.8414   -1.4118    0.0000 C   0  0  0  0  0  0  0  0  0  0  0  0
    1.2095   -0.8815    0.0000 C   0  0  0  0  0  0  0  0  0  0  0  0
    2.2539   -2.1263    0.0000 C   0  0  0  0  0  0  0  0  0  0  0  0
    1.4289   -2.1263    0.0000 C   0  0  0  0  0  0  0  0  0  0  0  0
    0.7145   -2.5388    0.0000 N   0  0  0  0  0  0  0  0  0  0  0  0
    0.0000   -2.1263    0.0000 C   0  0  0  0  0  0  0  0  0  0  0  0
   -0.7145   -2.5388    0.0000 C   0  0  0  0  0  0  0  0  0  0  0  0
   -0.7145   -3.3638    0.0000 Cl  0  0  0  0  0  0  0  0  0  0  0  0
   -1.4289   -2.1263    0.0000 C   0  0  0  0  0  0  0  0  0  0  0  0
   -1.4289   -1.3013    0.0000 C   0  0  0  0  0  0  0  0  0  0  0  0
   -2.1434   -0.8888    0.0000 O   0  0  0  0  0  0  0  0  0  0  0  0
   -2.8579   -1.3013    0.0000 C   0  0  0  0  0  0  0  0  0  0  0  0
   -3.5724   -0.8888    0.0000 C   0  0  0  0  0  0  0  0  0  0  0  0
   -4.2868   -1.3013    0.0000 O   0  0  0  0  0  0  0  0  0  0  0  0
   -3.5724   -0.0638    0.0000 O   0  0  0  0  0  0  0  0  0  0  0  0
   -0.7145   -0.8888    0.0000 C   0  0  0  0  0  0  0  0  0  0  0  0
    0.0000   -1.3013    0.0000 C   0  0  0  0  0  0  0  0  0  0  0  0
  1  2  1  0  0  0  0
  2  3  1  0  0  0  0
  2  4  1  0  0  0  0
  4  5  1  0  0  0  0
  2  5  1  0  0  0  0
  5  6  1  0  0  0  0
  6  7  1  0  0  0  0
  7  8  2  0  0  0  0
  8  9  1  0  0  0  0
  8 10  1  0  0  0  0
 10 11  2  0  0  0  0
 11 12  1  0  0  0  0
 12 13  1  0  0  0  0
 13 14  1  0  0  0  0
 14 15  1  0  0  0  0
 14 16  2  0  0  0  0
 11 17  1  0  0  0  0
 17 18  2  0  0  0  0
  7 18  1  0  0  0  0
M  END
> <ID>
CPD_2217

$$$$
CPD_2222
  Mrv1822 09091914012D          

 21 24  0  0  0  0            999 V2000
    1.4289   -2.4750    0.0000 O   0  0  0  0  0  0  0  0  0  0  0  0
    1.4289   -1.6500    0.0000 C   0  0  0  0  0  0  0  0  0  0  0  0
    0.7145   -1.2375    0.0000 N   0  0  0  0  0  0  0  0  0  0  0  0
    0.7145   -0.4125    0.0000 C   0  0  0  0  0  0  0  0  0  0  0  0
    1.4289    0.0000    0.0000 N   0  0  0  0  0  0  0  0  0  0  0  0
    2.1434   -0.4125    0.0000 C   0  0  0  0  0  0  0  0  0  0  0  0
    2.8579    0.0000    0.0000 C   0  0  0  0  0  0  0  0  0  0  0  0
    2.8579    0.8250    0.0000 Br  0  0  0  0  0  0  0  0  0  0  0  0
    3.5724   -0.4125    0.0000 C   0  0  0  0  0  0  0  0  0  0  0  0
    3.5724   -1.2375    0.0000 C   0  0  0  0  0  0  0  0  0  0  0  0
    4.2868   -1.6500    0.0000 Br  0  0  0  0  0  0  0  0  0  0  0  0
    2.8579   -1.6500    0.0000 C   0  0  0  0  0  0  0  0  0  0  0  0
    2.8579   -2.4750    0.0000 N   0  0  0  0  0  0  0  0  0  0  0  0
    2.1904   -2.9599    0.0000 C   0  0  0  0  0  0  0  0  0  0  0  0
    2.4454   -3.7445    0.0000 C   0  0  0  0  0  0  0  0  0  0  0  0
    3.2704   -3.7445    0.0000 C   0  0  0  0  0  0  0  0  0  0  0  0
    3.5253   -2.9599    0.0000 C   0  0  0  0  0  0  0  0  0  0  0  0
    4.2604   -3.3345    0.0000 C   0  0  0  0  0  0  0  0  0  0  0  0
    4.6349   -2.5994    0.0000 C   0  0  0  0  0  0  0  0  0  0  0  0
    3.8999   -2.2248    0.0000 C   0  0  0  0  0  0  0  0  0  0  0  0
    2.1434   -1.2375    0.0000 C   0  0  0  0  0  0  0  0  0  0  0  0
  1  2  1  0  0  0  0
  2  3  2  0  0  0  0
  3  4  1  0  0  0  0
  4  5  2  0  0  0  0
  5  6  1  0  0  0  0
  6  7  2  0  0  0  0
  7  8  1  0  0  0  0
  7  9  1  0  0  0  0
  9 10  2  0  0  0  0
 10 11  1  0  0  0  0
 10 12  1  0  0  0  0
 12 13  1  0  0  0  0
 13 14  1  0  0  0  0
 14 15  1  0  0  0  0
 15 16  1  0  0  0  0
 16 17  1  0  0  0  0
 13 17  1  0  0  0  0
 17 18  1  0  0  0  0
 18 19  1  0  0  0  0
 19 20  1  0  0  0  0
 17 20  1  0  0  0  0
 12 21  2  0  0  0  0
  2 21  1  0  0  0  0
  6 21  1  0  0  0  0
M  END
> <ID>
CPD_2222

$$$$
CPD_2227
  Mrv1822 09091914012D          

 32 36  0  0  0  0            999 V2000
    0.7098   -3.4939    0.0000 C   0  0  0  0  0  0  0  0  0  0  0  0
    0.7960   -2.6735    0.0000 O   0  0  0  0  0  0  0  0  0  0  0  0
    0.1286   -2.1885    0.0000 C   0  0  0  0  0  0  0  0  0  0  0  0
   -0.6251   -2.5241    0.0000 O   0  0  0  0  0  0  0  0  0  0  0  0
    0.2148   -1.3681    0.0000 C   0  0  0  0  0  0  0  0  0  0  0  0
   -0.4526   -0.8831    0.0000 N   0  0  0  0  0  0  0  0  0  0  0  0
   -1.2372   -1.1381    0.0000 N   0  0  0  0  0  0  0  0  0  0  0  0
   -1.7221   -0.4706    0.0000 N   0  0  0  0  0  0  0  0  0  0  0  0
   -1.2372    0.1968    0.0000 C   0  0  0  0  0  0  0  0  0  0  0  0
   -0.4526   -0.0581    0.0000 N   0  0  0  0  0  0  0  0  0  0  0  0
   -1.4922    0.9814    0.0000 C   0  0  0  0  0  0  0  0  0  0  0  0
   -2.2991    1.1530    0.0000 C   0  0  0  0  0  0  0  0  0  0  0  0
   -2.5541    1.9376    0.0000 C   0  0  0  0  0  0  0  0  0  0  0  0
   -2.0020    2.5507    0.0000 C   0  0  0  0  0  0  0  0  0  0  0  0
   -1.1951    2.3791    0.0000 C   0  0  0  0  0  0  0  0  0  0  0  0
   -0.9401    1.5945    0.0000 C   0  0  0  0  0  0  0  0  0  0  0  0
   -0.1332    1.4230    0.0000 O   0  0  0  0  0  0  0  0  0  0  0  0
    0.4189    2.0361    0.0000 C   0  0  0  0  0  0  0  0  0  0  0  0
    0.1639    2.8207    0.0000 C   0  0  0  0  0  0  0  0  0  0  0  0
    0.7160    3.4338    0.0000 C   0  0  0  0  0  0  0  0  0  0  0  0
    1.5229    3.2623    0.0000 C   0  0  0  0  0  0  0  0  0  0  0  0
    2.0750    3.8754    0.0000 Cl  0  0  0  0  0  0  0  0  0  0  0  0
    1.7779    2.4777    0.0000 C   0  0  0  0  0  0  0  0  0  0  0  0
    1.2258    1.8646    0.0000 C   0  0  0  0  0  0  0  0  0  0  0  0
    1.4808    1.0799    0.0000 N   0  0  0  0  0  0  0  0  0  0  0  0
    2.2654    0.8250    0.0000 C   0  0  0  0  0  0  0  0  0  0  0  0
    2.2654   -0.0000    0.0000 C   0  0  0  0  0  0  0  0  0  0  0  0
    1.4808   -0.2549    0.0000 C   0  0  0  0  0  0  0  0  0  0  0  0
    0.9959    0.4125    0.0000 C   0  0  0  0  0  0  0  0  0  0  0  0
    0.4125   -0.1709    0.0000 C   0  0  0  0  0  0  0  0  0  0  0  0
   -0.1709    0.4125    0.0000 C   0  0  0  0  0  0  0  0  0  0  0  0
    0.4125    0.9959    0.0000 C   0  0  0  0  0  0  0  0  0  0  0  0
  1  2  1  0  0  0  0
  2  3  1  0  0  0  0
  3  4  2  0  0  0  0
  3  5  1  0  0  0  0
  5  6  1  0  0  0  0
  6  7  1  0  0  0  0
  7  8  2  0  0  0  0
  8  9  1  0  0  0  0
  9 10  2  0  0  0  0
  6 10  1  0  0  0  0
  9 11  1  0  0  0  0
 11 12  2  0  0  0  0
 12 13  1  0  0  0  0
 13 14  2  0  0  0  0
 14 15  1  0  0  0  0
 15 16  2  0  0  0  0
 11 16  1  0  0  0  0
 16 17  1  0  0  0  0
 17 18  1  0  0  0  0
 18 19  2  0  0  0  0
 19 20  1  0  0  0  0
 20 21  2  0  0  0  0
 21 22  1  0  0  0  0
 21 23  1  0  0  0  0
 23 24  2  0  0  0  0
 18 24  1  0  0  0  0
 24 25  1  0  0  0  0
 25 26  1  0  0  0  0
 26 27  1  0  0  0  0
 27 28  1  0  0  0  0
 28 29  1  0  0  0  0
 25 29  1  0  0  0  0
 29 30  1  0  0  0  0
 30 31  1  0  0  0  0
 31 32  1  0  0  0  0
 29 32  1  0  0  0  0
M  END
> <ID>
CPD_2227

$$$$
CPD_2232
  Mrv1822 09091914012D          

 26 27  0  0  0  0            999 V2000
    2.8579    0.0000    0.0000 C   0  0  0  0  0  0  0  0  0  0  0  0
    3.5724   -0.4125    0.0000 N   0  0  0  0  0  0  0  0  0  0  0  0
    3.5724   -1.2375    0.0000 C   0  0  0  0  0  0  0  0  0  0  0  0
    2.8579   -1.6500    0.0000 C   0  0  0  0  0  0  0  0  0  0  0  0
    2.8579   -2.4750    0.0000 C   0  0  0  0  0  0  0  0  0  0  0  0
    3.5724   -2.8875    0.0000 C   0  0  0  0  0  0  0  0  0  0  0  0
    3.5724   -3.7125    0.0000 C   0  0  0  0  0  0  0  0  0  0  0  0
    2.8579   -4.1250    0.0000 C   0  0  0  0  0  0  0  0  0  0  0  0
    2.1434   -3.7125    0.0000 C   0  0  0  0  0  0  0  0  0  0  0  0
    2.1434   -2.8875    0.0000 C   0  0  0  0  0  0  0  0  0  0  0  0
    1.4289   -4.1250    0.0000 C   0  0  0  0  0  0  0  0  0  0  0  0
    1.4289   -4.9500    0.0000 O   0  0  0  0  0  0  0  0  0  0  0  0
    0.7145   -3.7125    0.0000 O   0  0  0  0  0  0  0  0  0  0  0  0
    4.2868   -0.0000    0.0000 C   0  0  0  0  0  0  0  0  0  0  0  0
    4.2868    0.8250    0.0000 C   0  0  0  0  0  0  0  0  0  0  0  0
    3.5724    1.2375    0.0000 F   0  0  0  0  0  0  0  0  0  0  0  0
    5.0013    1.2375    0.0000 C   0  0  0  0  0  0  0  0  0  0  0  0
    5.0013    2.0625    0.0000 F   0  0  0  0  0  0  0  0  0  0  0  0
    5.7158    0.8250    0.0000 C   0  0  0  0  0  0  0  0  0  0  0  0
    6.4302    1.2375    0.0000 C   0  0  0  0  0  0  0  0  0  0  0  0
    6.4302    2.0625    0.0000 C   0  0  0  0  0  0  0  0  0  0  0  0
    7.1447    0.8250    0.0000 O   0  0  0  0  0  0  0  0  0  0  0  0
    5.7158   -0.0000    0.0000 C   0  0  0  0  0  0  0  0  0  0  0  0
    6.4302   -0.4125    0.0000 F   0  0  0  0  0  0  0  0  0  0  0  0
    5.0013   -0.4125    0.0000 C   0  0  0  0  0  0  0  0  0  0  0  0
    5.0013   -1.2375    0.0000 F   0  0  0  0  0  0  0  0  0  0  0  0
  1  2  1  0  0  0  0
  2  3  1  0  0  0  0
  3  4  1  0  0  0  0
  4  5  1  0  0  0  0
  5  6  2  0  0  0  0
  6  7  1  0  0  0  0
  7  8  2  0  0  0  0
  8  9  1  0  0  0  0
  9 10  2  0  0  0  0
  5 10  1  0  0  0  0
  9 11  1  0  0  0  0
 11 12  1  0  0  0  0
 11 13  2  0  0  0  0
  2 14  1  0  0  0  0
 14 15  2  0  0  0  0
 15 16  1  0  0  0  0
 15 17  1  0  0  0  0
 17 18  1  0  0  0  0
 17 19  2  0  0  0  0
 19 20  1  0  0  0  0
 20 21  1  0  0  0  0
 20 22  2  0  0  0  0
 19 23  1  0  0  0  0
 23 24  1  0  0  0  0
 23 25  2  0  0  0  0
 14 25  1  0  0  0  0
 25 26  1  0  0  0  0
M  END
> <ID>
CPD_2232

$$$$
CPD_2237
  Mrv1822 09091914012D          

 20 21  0  0  0  0            999 V2000
    2.8579    0.0000    0.0000 C   0  0  0  0  0  0  0  0  0  0  0  0
    3.5724   -0.4125    0.0000 N   0  0  0  0  0  0  0  0  0  0  0  0
    3.5724   -1.2375    0.0000 C   0  0  0  0  0  0  0  0  0  0  0  0
    2.8579   -1.6500    0.0000 C   0  0  0  0  0  0  0  0  0  0  0  0
    2.8579   -2.4750    0.0000 C   0  0  0  0  0  0  0  0  0  0  0  0
    3.5724   -2.8875    0.0000 C   0  0  0  0  0  0  0  0  0  0  0  0
    3.5724   -3.7125    0.0000 C   0  0  0  0  0  0  0  0  0  0  0  0
    2.8579   -4.1250    0.0000 C   0  0  0  0  0  0  0  0  0  0  0  0
    2.1434   -3.7125    0.0000 C   0  0  0  0  0  0  0  0  0  0  0  0
    2.1434   -2.8875    0.0000 C   0  0  0  0  0  0  0  0  0  0  0  0
    1.4289   -4.1250    0.0000 C   0  0  0  0  0  0  0  0  0  0  0  0
    1.4289   -4.9500    0.0000 O   0  0  0  0  0  0  0  0  0  0  0  0
    0.7145   -3.7125    0.0000 O   0  0  0  0  0  0  0  0  0  0  0  0
    4.2868   -0.0000    0.0000 C   0  0  0  0  0  0  0  0  0  0  0  0
    4.2868    0.8250    0.0000 C   0  0  0  0  0  0  0  0  0  0  0  0
    5.0013    1.2375    0.0000 C   0  0  0  0  0  0  0  0  0  0  0  0
    5.7158    0.8250    0.0000 C   0  0  0  0  0  0  0  0  0  0  0  0
    6.4302    1.2375    0.0000 F   0  0  0  0  0  0  0  0  0  0  0  0
    5.7158   -0.0000    0.0000 C   0  0  0  0  0  0  0  0  0  0  0  0
    5.0013   -0.4125    0.0000 C   0  0  0  0  0  0  0  0  0  0  0  0
  1  2  1  0  0  0  0
  2  3  1  0  0  0  0
  3  4  1  0  0  0  0
  4  5  1  0  0  0  0
  5  6  2  0  0  0  0
  6  7  1  0  0  0  0
  7  8  2  0  0  0  0
  8  9  1  0  0  0  0
  9 10  2  0  0  0  0
  5 10  1  0  0  0  0
  9 11  1  0  0  0  0
 11 12  1  0  0  0  0
 11 13  2  0  0  0  0
  2 14  1  0  0  0  0
 14 15  2  0  0  0  0
 15 16  1  0  0  0  0
 16 17  2  0  0  0  0
 17 18  1  0  0  0  0
 17 19  1  0  0  0  0
 19 20  2  0  0  0  0
 14 20  1  0  0  0  0
M  END
> <ID>
CPD_2237

$$$$
CPD_2242
  Mrv1822 09091914012D          

 29 31  0  0  0  0            999 V2000
    4.2868   -0.8250    0.0000 C   0  0  0  0  0  0  0  0  0  0  0  0
    3.5724   -1.2375    0.0000 O   0  0  0  0  0  0  0  0  0  0  0  0
    3.5724   -2.0625    0.0000 C   0  0  0  0  0  0  0  0  0  0  0  0
    4.2868   -2.4750    0.0000 C   0  0  0  0  0  0  0  0  0  0  0  0
    5.0013   -2.0625    0.0000 Cl  0  0  0  0  0  0  0  0  0  0  0  0
    4.2868   -3.3000    0.0000 C   0  0  0  0  0  0  0  0  0  0  0  0
    3.5724   -3.7125    0.0000 C   0  0  0  0  0  0  0  0  0  0  0  0
    2.8579   -3.3000    0.0000 C   0  0  0  0  0  0  0  0  0  0  0  0
    2.1434   -3.7125    0.0000 N   0  0  0  0  0  0  0  0  0  0  0  0
    2.1434   -4.5375    0.0000 C   0  0  0  0  0  0  0  0  0  0  0  0
    2.8579   -4.9500    0.0000 N   0  0  0  0  0  0  0  0  0  0  0  0
    2.8579   -5.7750    0.0000 C   0  0  0  0  0  0  0  0  0  0  0  0
    2.1434   -6.1875    0.0000 C   0  0  0  0  0  0  0  0  0  0  0  0
    2.1434   -7.0125    0.0000 Cl  0  0  0  0  0  0  0  0  0  0  0  0
    1.4289   -5.7750    0.0000 C   0  0  0  0  0  0  0  0  0  0  0  0
    1.4289   -4.9500    0.0000 C   0  0  0  0  0  0  0  0  0  0  0  0
    0.7145   -4.5375    0.0000 S   0  0  0  0  0  0  0  0  0  0  0  0
    1.1270   -3.8230    0.0000 O   0  0  0  0  0  0  0  0  0  0  0  0
    0.3020   -5.2520    0.0000 O   0  0  0  0  0  0  0  0  0  0  0  0
    0.0000   -4.1250    0.0000 N   0  0  0  0  0  0  0  0  0  0  0  0
   -0.7145   -4.5375    0.0000 C   0  0  0  0  0  0  0  0  0  0  0  0
   -1.4289   -4.1250    0.0000 C   0  0  0  0  0  0  0  0  0  0  0  0
   -1.4289   -3.3000    0.0000 C   0  0  0  0  0  0  0  0  0  0  0  0
   -0.7145   -2.8875    0.0000 C   0  0  0  0  0  0  0  0  0  0  0  0
    0.0000   -3.3000    0.0000 C   0  0  0  0  0  0  0  0  0  0  0  0
    2.8579   -2.4750    0.0000 C   0  0  0  0  0  0  0  0  0  0  0  0
    2.1434   -2.0625    0.0000 C   0  0  0  0  0  0  0  0  0  0  0  0
    2.1434   -1.2375    0.0000 O   0  0  0  0  0  0  0  0  0  0  0  0
    1.4289   -2.4750    0.0000 O   0  0  0  0  0  0  0  0  0  0  0  0
  1  2  1  0  0  0  0
  2  3  1  0  0  0  0
  3  4  2  0  0  0  0
  4  5  1  0  0  0  0
  4  6  1  0  0  0  0
  6  7  2  0  0  0  0
  7  8  1  0  0  0  0
  8  9  1  0  0  0  0
  9 10  1  0  0  0  0
 10 11  2  0  0  0  0
 11 12  1  0  0  0  0
 12 13  2  0  0  0  0
 13 14  1  0  0  0  0
 13 15  1  0  0  0  0
 15 16  2  0  0  0  0
 10 16  1  0  0  0  0
 16 17  1  0  0  0  0
 17 18  2  0  0  0  0
 17 19  2  0  0  0  0
 17 20  1  0  0  0  0
 20 21  1  0  0  0  0
 21 22  1  0  0  0  0
 22 23  1  0  0  0  0
 23 24  1  0  0  0  0
 24 25  1  0  0  0  0
 20 25  1  0  0  0  0
  8 26  2  0  0  0  0
  3 26  1  0  0  0  0
 26 27  1  0  0  0  0
 27 28  1  0  0  0  0
 27 29  2  0  0  0  0
M  END
> <ID>
CPD_2242

$$$$
CPD_2247
  Mrv1822 09091914012D          

 27 29  0  0  0  0            999 V2000
    2.8579   -0.8250    0.0000 C   0  0  0  0  0  0  0  0  0  0  0  0
    3.5724   -1.2375    0.0000 O   0  0  0  0  0  0  0  0  0  0  0  0
    3.5724   -2.0625    0.0000 C   0  0  0  0  0  0  0  0  0  0  0  0
    4.2868   -2.4750    0.0000 C   0  0  0  0  0  0  0  0  0  0  0  0
    4.2868   -3.3000    0.0000 C   0  0  0  0  0  0  0  0  0  0  0  0
    3.5724   -3.7125    0.0000 C   0  0  0  0  0  0  0  0  0  0  0  0
    3.5724   -4.5375    0.0000 N   0  0  0  0  0  0  0  0  0  0  0  0
    4.2868   -4.9500    0.0000 C   0  0  0  0  0  0  0  0  0  0  0  0
    5.0013   -4.5375    0.0000 N   0  0  0  0  0  0  0  0  0  0  0  0
    5.7158   -4.9500    0.0000 C   0  0  0  0  0  0  0  0  0  0  0  0
    5.7158   -5.7750    0.0000 C   0  0  0  0  0  0  0  0  0  0  0  0
    6.4302   -6.1875    0.0000 Cl  0  0  0  0  0  0  0  0  0  0  0  0
    5.0013   -6.1875    0.0000 C   0  0  0  0  0  0  0  0  0  0  0  0
    4.2868   -5.7750    0.0000 C   0  0  0  0  0  0  0  0  0  0  0  0
    3.5724   -6.1875    0.0000 S   0  0  0  0  0  0  0  0  0  0  0  0
    3.1599   -5.4730    0.0000 O   0  0  0  0  0  0  0  0  0  0  0  0
    3.9849   -6.9020    0.0000 O   0  0  0  0  0  0  0  0  0  0  0  0
    2.8579   -6.6000    0.0000 N   0  0  0  0  0  0  0  0  0  0  0  0
    2.8579   -7.4250    0.0000 C   0  0  0  0  0  0  0  0  0  0  0  0
    2.1434   -7.8375    0.0000 C   0  0  0  0  0  0  0  0  0  0  0  0
    1.4289   -7.4250    0.0000 C   0  0  0  0  0  0  0  0  0  0  0  0
    1.4289   -6.6000    0.0000 C   0  0  0  0  0  0  0  0  0  0  0  0
    2.1434   -6.1875    0.0000 C   0  0  0  0  0  0  0  0  0  0  0  0
    2.8579   -3.3000    0.0000 C   0  0  0  0  0  0  0  0  0  0  0  0
    2.1434   -3.7125    0.0000 F   0  0  0  0  0  0  0  0  0  0  0  0
    2.8579   -2.4750    0.0000 C   0  0  0  0  0  0  0  0  0  0  0  0
    2.1434   -2.0625    0.0000 Br  0  0  0  0  0  0  0  0  0  0  0  0
  1  2  1  0  0  0  0
  2  3  1  0  0  0  0
  3  4  2  0  0  0  0
  4  5  1  0  0  0  0
  5  6  2  0  0  0  0
  6  7  1  0  0  0  0
  7  8  1  0  0  0  0
  8  9  2  0  0  0  0
  9 10  1  0  0  0  0
 10 11  2  0  0  0  0
 11 12  1  0  0  0  0
 11 13  1  0  0  0  0
 13 14  2  0  0  0  0
  8 14  1  0  0  0  0
 14 15  1  0  0  0  0
 15 16  2  0  0  0  0
 15 17  2  0  0  0  0
 15 18  1  0  0  0  0
 18 19  1  0  0  0  0
 19 20  1  0  0  0  0
 20 21  1  0  0  0  0
 21 22  1  0  0  0  0
 22 23  1  0  0  0  0
 18 23  1  0  0  0  0
  6 24  1  0  0  0  0
 24 25  1  0  0  0  0
 24 26  2  0  0  0  0
  3 26  1  0  0  0  0
 26 27  1  0  0  0  0
M  END
> <ID>
CPD_2247

$$$$
CPD_2252
  Mrv1822 09091914012D          

 32 34  0  0  0  0            999 V2000
   -1.9520   -3.6020    0.0000 C   0  0  0  0  0  0  0  0  0  0  0  0
   -1.1270   -3.6020    0.0000 C   0  0  0  0  0  0  0  0  0  0  0  0
   -0.7145   -2.8875    0.0000 O   0  0  0  0  0  0  0  0  0  0  0  0
    0.1105   -2.8875    0.0000 C   0  0  0  0  0  0  0  0  0  0  0  0
    0.5230   -3.6020    0.0000 O   0  0  0  0  0  0  0  0  0  0  0  0
    0.5230   -2.1730    0.0000 C   0  0  0  0  0  0  0  0  0  0  0  0
    1.3480   -2.1730    0.0000 C   0  0  0  0  0  0  0  0  0  0  0  0
    1.7605   -2.8875    0.0000 N   0  0  0  0  0  0  0  0  0  0  0  0
    2.5855   -2.8875    0.0000 C   0  0  0  0  0  0  0  0  0  0  0  0
    2.9980   -2.1730    0.0000 C   0  0  0  0  0  0  0  0  0  0  0  0
    3.8230   -2.1730    0.0000 C   0  0  0  0  0  0  0  0  0  0  0  0
    4.2355   -2.8875    0.0000 C   0  0  0  0  0  0  0  0  0  0  0  0
    3.8230   -3.6020    0.0000 C   0  0  0  0  0  0  0  0  0  0  0  0
    2.9980   -3.6020    0.0000 C   0  0  0  0  0  0  0  0  0  0  0  0
    5.0605   -2.8875    0.0000 C   0  0  0  0  0  0  0  0  0  0  0  0
    5.4730   -3.6020    0.0000 N   0  0  0  0  0  0  0  0  0  0  0  0
    5.4730   -2.1730    0.0000 C   0  0  0  0  0  0  0  0  0  0  0  0
    5.0605   -1.4586    0.0000 C   0  0  0  0  0  0  0  0  0  0  0  0
    5.4730   -0.7441    0.0000 C   0  0  0  0  0  0  0  0  0  0  0  0
    6.2980   -0.7441    0.0000 C   0  0  0  0  0  0  0  0  0  0  0  0
    6.7105   -0.0296    0.0000 O   0  0  0  0  0  0  0  0  0  0  0  0
    6.2980    0.6849    0.0000 C   0  0  0  0  0  0  0  0  0  0  0  0
    6.7105   -1.4586    0.0000 C   0  0  0  0  0  0  0  0  0  0  0  0
    6.2980   -2.1730    0.0000 C   0  0  0  0  0  0  0  0  0  0  0  0
    1.7605   -1.4586    0.0000 C   0  0  0  0  0  0  0  0  0  0  0  0
    1.3480   -0.7441    0.0000 C   0  0  0  0  0  0  0  0  0  0  0  0
    1.7605   -0.0296    0.0000 C   0  0  0  0  0  0  0  0  0  0  0  0
    2.5855   -0.0296    0.0000 C   0  0  0  0  0  0  0  0  0  0  0  0
    2.9980    0.6849    0.0000 Br  0  0  0  0  0  0  0  0  0  0  0  0
    2.9980   -0.7441    0.0000 C   0  0  0  0  0  0  0  0  0  0  0  0
    2.5855   -1.4586    0.0000 C   0  0  0  0  0  0  0  0  0  0  0  0
    3.3392   -1.7941    0.0000 C   0  0  0  0  0  0  0  0  0  0  0  0
  1  2  1  0  0  0  0
  2  3  1  0  0  0  0
  3  4  1  0  0  0  0
  4  5  2  0  0  0  0
  4  6  1  0  0  0  0
  6  7  1  0  0  0  0
  7  8  1  0  0  0  0
  8  9  1  0  0  0  0
  9 10  2  0  0  0  0
 10 11  1  0  0  0  0
 11 12  2  0  0  0  0
 12 13  1  0  0  0  0
 13 14  2  0  0  0  0
  9 14  1  0  0  0  0
 12 15  1  0  0  0  0
 15 16  1  0  0  0  0
 15 17  1  0  0  0  0
 17 18  2  0  0  0  0
 18 19  1  0  0  0  0
 19 20  2  0  0  0  0
 20 21  1  0  0  0  0
 21 22  1  0  0  0  0
 20 23  1  0  0  0  0
 23 24  2  0  0  0  0
 17 24  1  0  0  0  0
  7 25  1  0  0  0  0
 25 26  2  0  0  0  0
 26 27  1  0  0  0  0
 27 28  2  0  0  0  0
 28 29  1  0  0  0  0
 28 30  1  0  0  0  0
 30 31  2  0  0  0  0
 25 31  1  0  0  0  0
 31 32  1  0  0  0  0
M  END
> <ID>
CPD_2252

$$$$
CPD_2257
  Mrv1822 09091914012D          

 27 28  0  0  0  0            999 V2000
   -1.9520   -3.6020    0.0000 C   0  0  0  0  0  0  0  0  0  0  0  0
   -1.1270   -3.6020    0.0000 C   0  0  0  0  0  0  0  0  0  0  0  0
   -0.7145   -2.8875    0.0000 O   0  0  0  0  0  0  0  0  0  0  0  0
    0.1105   -2.8875    0.0000 C   0  0  0  0  0  0  0  0  0  0  0  0
    0.5230   -3.6020    0.0000 O   0  0  0  0  0  0  0  0  0  0  0  0
    0.5230   -2.1730    0.0000 C   0  0  0  0  0  0  0  0  0  0  0  0
    1.3480   -2.1730    0.0000 C   0  0  0  0  0  0  0  0  0  0  0  0
    1.7605   -2.8875    0.0000 N   0  0  0  0  0  0  0  0  0  0  0  0
    2.5855   -2.8875    0.0000 C   0  0  0  0  0  0  0  0  0  0  0  0
    2.9980   -3.6020    0.0000 C   0  0  0  0  0  0  0  0  0  0  0  0
    3.8230   -3.6020    0.0000 C   0  0  0  0  0  0  0  0  0  0  0  0
    4.2355   -4.3164    0.0000 C   0  0  0  0  0  0  0  0  0  0  0  0
    4.2355   -2.8875    0.0000 C   0  0  0  0  0  0  0  0  0  0  0  0
    5.0605   -2.8875    0.0000 O   0  0  0  0  0  0  0  0  0  0  0  0
    5.4730   -3.6020    0.0000 C   0  0  0  0  0  0  0  0  0  0  0  0
    6.2980   -3.6020    0.0000 F   0  0  0  0  0  0  0  0  0  0  0  0
    5.0605   -4.3164    0.0000 F   0  0  0  0  0  0  0  0  0  0  0  0
    3.8230   -2.1730    0.0000 C   0  0  0  0  0  0  0  0  0  0  0  0
    2.9980   -2.1730    0.0000 C   0  0  0  0  0  0  0  0  0  0  0  0
    1.7605   -1.4586    0.0000 C   0  0  0  0  0  0  0  0  0  0  0  0
    1.3480   -0.7441    0.0000 C   0  0  0  0  0  0  0  0  0  0  0  0
    1.7605   -0.0296    0.0000 C   0  0  0  0  0  0  0  0  0  0  0  0
    2.5855   -0.0296    0.0000 C   0  0  0  0  0  0  0  0  0  0  0  0
    2.9980    0.6849    0.0000 Br  0  0  0  0  0  0  0  0  0  0  0  0
    2.9980   -0.7441    0.0000 C   0  0  0  0  0  0  0  0  0  0  0  0
    2.5855   -1.4586    0.0000 C   0  0  0  0  0  0  0  0  0  0  0  0
    3.3392   -1.7941    0.0000 C   0  0  0  0  0  0  0  0  0  0  0  0
  1  2  1  0  0  0  0
  2  3  1  0  0  0  0
  3  4  1  0  0  0  0
  4  5  2  0  0  0  0
  4  6  1  0  0  0  0
  6  7  1  0  0  0  0
  7  8  1  0  0  0  0
  8  9  1  0  0  0  0
  9 10  2  0  0  0  0
 10 11  1  0  0  0  0
 11 12  1  0  0  0  0
 11 13  2  0  0  0  0
 13 14  1  0  0  0  0
 14 15  1  0  0  0  0
 15 16  1  0  0  0  0
 15 17  1  0  0  0  0
 13 18  1  0  0  0  0
 18 19  2  0  0  0  0
  9 19  1  0  0  0  0
  7 20  1  0  0  0  0
 20 21  2  0  0  0  0
 21 22  1  0  0  0  0
 22 23  2  0  0  0  0
 23 24  1  0  0  0  0
 23 25  1  0  0  0  0
 25 26  2  0  0  0  0
 20 26  1  0  0  0  0
 26 27  1  0  0  0  0
M  END
> <ID>
CPD_2257

$$$$
CPD_2262
  Mrv1822 09091914012D          

 32 34  0  0  0  0            999 V2000
    5.2835   -5.4123    0.0000 C   0  0  0  0  0  0  0  0  0  0  0  0
    5.2835   -4.5873    0.0000 C   0  0  0  0  0  0  0  0  0  0  0  0
    6.1085   -4.5873    0.0000 C   0  0  0  0  0  0  0  0  0  0  0  0
    4.4585   -4.5873    0.0000 C   0  0  0  0  0  0  0  0  0  0  0  0
    5.2835   -3.7623    0.0000 C   0  0  0  0  0  0  0  0  0  0  0  0
    4.5690   -3.3498    0.0000 C   0  0  0  0  0  0  0  0  0  0  0  0
    4.5690   -2.5248    0.0000 C   0  0  0  0  0  0  0  0  0  0  0  0
    5.2835   -2.1123    0.0000 C   0  0  0  0  0  0  0  0  0  0  0  0
    4.7532   -1.4803    0.0000 C   0  0  0  0  0  0  0  0  0  0  0  0
    3.9407   -1.6235    0.0000 C   0  0  0  0  0  0  0  0  0  0  0  0
    3.6585   -2.3988    0.0000 O   0  0  0  0  0  0  0  0  0  0  0  0
    3.4104   -0.9915    0.0000 O   0  0  0  0  0  0  0  0  0  0  0  0
    5.9979   -2.5248    0.0000 C   0  0  0  0  0  0  0  0  0  0  0  0
    5.9979   -3.3498    0.0000 C   0  0  0  0  0  0  0  0  0  0  0  0
    5.8138   -1.4803    0.0000 N   0  0  0  0  0  0  0  0  0  0  0  0
    6.6262   -1.6235    0.0000 C   0  0  0  0  0  0  0  0  0  0  0  0
    7.1565   -0.9915    0.0000 C   0  0  0  0  0  0  0  0  0  0  0  0
    7.9690   -1.1348    0.0000 C   0  0  0  0  0  0  0  0  0  0  0  0
    8.2512   -1.9100    0.0000 C   0  0  0  0  0  0  0  0  0  0  0  0
    9.0636   -2.0533    0.0000 C   0  0  0  0  0  0  0  0  0  0  0  0
    9.3458   -2.8286    0.0000 N   0  0  0  0  0  0  0  0  0  0  0  0
   10.1583   -2.9718    0.0000 C   0  0  0  0  0  0  0  0  0  0  0  0
   10.6886   -2.3398    0.0000 O   0  0  0  0  0  0  0  0  0  0  0  0
   10.4404   -3.7471    0.0000 C   0  0  0  0  0  0  0  0  0  0  0  0
   11.2529   -3.8903    0.0000 C   0  0  0  0  0  0  0  0  0  0  0  0
   11.5351   -4.6656    0.0000 C   0  0  0  0  0  0  0  0  0  0  0  0
   11.0048   -5.2976    0.0000 C   0  0  0  0  0  0  0  0  0  0  0  0
   10.1923   -5.1543    0.0000 C   0  0  0  0  0  0  0  0  0  0  0  0
    9.9101   -4.3790    0.0000 C   0  0  0  0  0  0  0  0  0  0  0  0
    9.0977   -4.2358    0.0000 F   0  0  0  0  0  0  0  0  0  0  0  0
    7.7209   -2.5420    0.0000 C   0  0  0  0  0  0  0  0  0  0  0  0
    6.9084   -2.3988    0.0000 C   0  0  0  0  0  0  0  0  0  0  0  0
  1  2  1  0  0  0  0
  2  3  1  0  0  0  0
  2  4  1  0  0  0  0
  2  5  1  0  0  0  0
  5  6  1  0  0  0  0
  6  7  1  0  0  0  0
  7  8  1  0  0  0  0
  8  9  1  0  0  0  0
  9 10  1  0  0  0  0
 10 11  1  0  0  0  0
 10 12  2  0  0  0  0
  8 13  1  0  0  0  0
 13 14  1  0  0  0  0
  5 14  1  0  0  0  0
  8 15  1  0  0  0  0
 15 16  1  0  0  0  0
 16 17  2  0  0  0  0
 17 18  1  0  0  0  0
 18 19  2  0  0  0  0
 19 20  1  0  0  0  0
 20 21  1  0  0  0  0
 21 22  1  0  0  0  0
 22 23  2  0  0  0  0
 22 24  1  0  0  0  0
 24 25  2  0  0  0  0
 25 26  1  0  0  0  0
 26 27  2  0  0  0  0
 27 28  1  0  0  0  0
 28 29  2  0  0  0  0
 24 29  1  0  0  0  0
 29 30  1  0  0  0  0
 19 31  1  0  0  0  0
 31 32  2  0  0  0  0
 16 32  1  0  0  0  0
M  END
> <ID>
CPD_2262

$$$$
CPD_2267
  Mrv1822 09091914012D          

 34 38  0  0  0  0            999 V2000
    7.4274    0.4125    0.0000 O   0  0  0  0  0  0  0  0  0  0  0  0
    6.6024    0.4125    0.0000 C   0  0  0  0  0  0  0  0  0  0  0  0
    6.6887   -0.4080    0.0000 O   0  0  0  0  0  0  0  0  0  0  0  0
    6.1899    1.1270    0.0000 C   0  0  0  0  0  0  0  0  0  0  0  0
    6.6024    1.8414    0.0000 C   0  0  0  0  0  0  0  0  0  0  0  0
    6.1899    2.5559    0.0000 C   0  0  0  0  0  0  0  0  0  0  0  0
    5.3649    2.5559    0.0000 C   0  0  0  0  0  0  0  0  0  0  0  0
    4.9524    3.2704    0.0000 O   0  0  0  0  0  0  0  0  0  0  0  0
    4.9524    1.8414    0.0000 C   0  0  0  0  0  0  0  0  0  0  0  0
    4.1274    1.8414    0.0000 F   0  0  0  0  0  0  0  0  0  0  0  0
    5.3649    1.1270    0.0000 C   0  0  0  0  0  0  0  0  0  0  0  0
    4.9524    0.4125    0.0000 N   0  0  0  0  0  0  0  0  0  0  0  0
    4.1274    0.4125    0.0000 C   0  0  0  0  0  0  0  0  0  0  0  0
    3.6425   -0.2549    0.0000 N   0  0  0  0  0  0  0  0  0  0  0  0
    2.8579   -0.0000    0.0000 C   0  0  0  0  0  0  0  0  0  0  0  0
    2.8579    0.8250    0.0000 C   0  0  0  0  0  0  0  0  0  0  0  0
    3.6425    1.0799    0.0000 S   0  0  0  0  0  0  0  0  0  0  0  0
    2.1434    1.2375    0.0000 C   0  0  0  0  0  0  0  0  0  0  0  0
    2.1434    2.0625    0.0000 O   0  0  0  0  0  0  0  0  0  0  0  0
    1.4289    0.8250    0.0000 C   0  0  0  0  0  0  0  0  0  0  0  0
    1.4289    0.0000    0.0000 C   0  0  0  0  0  0  0  0  0  0  0  0
    0.7145   -0.4125    0.0000 C   0  0  0  0  0  0  0  0  0  0  0  0
    0.0000   -0.0000    0.0000 C   0  0  0  0  0  0  0  0  0  0  0  0
    0.0000    0.8250    0.0000 C   0  0  0  0  0  0  0  0  0  0  0  0
    0.7145    1.2375    0.0000 C   0  0  0  0  0  0  0  0  0  0  0  0
    2.1434   -0.4125    0.0000 C   0  0  0  0  0  0  0  0  0  0  0  0
    2.1434   -1.2375    0.0000 O   0  0  0  0  0  0  0  0  0  0  0  0
    5.3649   -0.3020    0.0000 C   0  0  0  0  0  0  0  0  0  0  0  0
    6.1899   -0.3020    0.0000 C   0  0  0  0  0  0  0  0  0  0  0  0
    6.6024   -1.0164    0.0000 C   0  0  0  0  0  0  0  0  0  0  0  0
    6.1899   -1.7309    0.0000 C   0  0  0  0  0  0  0  0  0  0  0  0
    6.6024   -2.4454    0.0000 F   0  0  0  0  0  0  0  0  0  0  0  0
    5.3649   -1.7309    0.0000 C   0  0  0  0  0  0  0  0  0  0  0  0
    4.9524   -1.0164    0.0000 C   0  0  0  0  0  0  0  0  0  0  0  0
  1  2  1  0  0  0  0
  2  3  2  0  0  0  0
  2  4  1  0  0  0  0
  4  5  2  0  0  0  0
  5  6  1  0  0  0  0
  6  7  2  0  0  0  0
  7  8  1  0  0  0  0
  7  9  1  0  0  0  0
  9 10  1  0  0  0  0
  9 11  2  0  0  0  0
  4 11  1  0  0  0  0
 11 12  1  0  0  0  0
 12 13  1  0  0  0  0
 13 14  2  0  0  0  0
 14 15  1  0  0  0  0
 15 16  2  0  0  0  0
 16 17  1  0  0  0  0
 13 17  1  0  0  0  0
 16 18  1  0  0  0  0
 18 19  2  0  0  0  0
 18 20  1  0  0  0  0
 20 21  2  0  0  0  0
 21 22  1  0  0  0  0
 22 23  2  0  0  0  0
 23 24  1  0  0  0  0
 24 25  2  0  0  0  0
 20 25  1  0  0  0  0
 21 26  1  0  0  0  0
 15 26  1  0  0  0  0
 26 27  2  0  0  0  0
 12 28  1  0  0  0  0
 28 29  2  0  0  0  0
 29 30  1  0  0  0  0
 30 31  2  0  0  0  0
 31 32  1  0  0  0  0
 31 33  1  0  0  0  0
 33 34  2  0  0  0  0
 28 34  1  0  0  0  0
M  END
> <ID>
CPD_2267

$$$$
CPD_2272
  Mrv1822 09091914012D          

 20 21  0  0  0  0            999 V2000
   -0.7145   -0.4125    0.0000 C   0  0  0  0  0  0  0  0  0  0  0  0
   -0.7145   -1.2375    0.0000 N   0  0  0  0  0  0  0  0  0  0  0  0
   -1.4289   -1.6500    0.0000 C   0  0  0  0  0  0  0  0  0  0  0  0
   -1.4289   -2.4750    0.0000 C   0  0  0  0  0  0  0  0  0  0  0  0
   -2.1434   -2.8875    0.0000 N   0  0  0  0  0  0  0  0  0  0  0  0
   -2.1434   -3.7125    0.0000 C   0  0  0  0  0  0  0  0  0  0  0  0
   -1.4289   -4.1250    0.0000 C   0  0  0  0  0  0  0  0  0  0  0  0
   -1.4289   -4.9500    0.0000 C   0  0  0  0  0  0  0  0  0  0  0  0
   -2.1434   -5.3625    0.0000 C   0  0  0  0  0  0  0  0  0  0  0  0
   -2.1434   -6.1875    0.0000 O   0  0  0  0  0  0  0  0  0  0  0  0
   -2.8579   -4.9500    0.0000 C   0  0  0  0  0  0  0  0  0  0  0  0
   -2.8579   -4.1250    0.0000 C   0  0  0  0  0  0  0  0  0  0  0  0
   -3.5724   -3.7125    0.0000 C   0  0  0  0  0  0  0  0  0  0  0  0
   -4.2868   -3.3000    0.0000 F   0  0  0  0  0  0  0  0  0  0  0  0
   -3.1599   -2.9980    0.0000 F   0  0  0  0  0  0  0  0  0  0  0  0
   -3.9849   -4.4270    0.0000 F   0  0  0  0  0  0  0  0  0  0  0  0
   -0.7145   -2.8875    0.0000 C   0  0  0  0  0  0  0  0  0  0  0  0
    0.0000   -2.4750    0.0000 C   0  0  0  0  0  0  0  0  0  0  0  0
    0.0000   -1.6500    0.0000 C   0  0  0  0  0  0  0  0  0  0  0  0
    0.7145   -1.2375    0.0000 O   0  0  0  0  0  0  0  0  0  0  0  0
  1  2  1  0  0  0  0
  2  3  1  0  0  0  0
  3  4  2  0  0  0  0
  4  5  1  0  0  0  0
  5  6  1  0  0  0  0
  6  7  2  0  0  0  0
  7  8  1  0  0  0  0
  8  9  2  0  0  0  0
  9 10  1  0  0  0  0
  9 11  1  0  0  0  0
 11 12  2  0  0  0  0
  6 12  1  0  0  0  0
 12 13  1  0  0  0  0
 13 14  1  0  0  0  0
 13 15  1  0  0  0  0
 13 16  1  0  0  0  0
  4 17  1  0  0  0  0
 17 18  2  0  0  0  0
 18 19  1  0  0  0  0
  2 19  1  0  0  0  0
 19 20  2  0  0  0  0
M  END
> <ID>
CPD_2272

$$$$
CPD_2277
  Mrv1822 09091914012D          

 18 19  0  0  0  0            999 V2000
    2.1434   -0.4125    0.0000 C   0  0  0  0  0  0  0  0  0  0  0  0
    2.1434   -1.2375    0.0000 N   0  0  0  0  0  0  0  0  0  0  0  0
    2.8579   -1.6500    0.0000 C   0  0  0  0  0  0  0  0  0  0  0  0
    2.8579   -2.4750    0.0000 C   0  0  0  0  0  0  0  0  0  0  0  0
    3.5724   -2.8875    0.0000 N   0  0  0  0  0  0  0  0  0  0  0  0
    3.5724   -3.7125    0.0000 C   0  0  0  0  0  0  0  0  0  0  0  0
    4.2868   -4.1250    0.0000 C   0  0  0  0  0  0  0  0  0  0  0  0
    4.2868   -4.9500    0.0000 C   0  0  0  0  0  0  0  0  0  0  0  0
    3.5724   -5.3625    0.0000 C   0  0  0  0  0  0  0  0  0  0  0  0
    3.5724   -6.1875    0.0000 S   0  0  0  0  0  0  0  0  0  0  0  0
    2.8579   -6.6000    0.0000 C   0  0  0  0  0  0  0  0  0  0  0  0
    2.8579   -7.4250    0.0000 Cl  0  0  0  0  0  0  0  0  0  0  0  0
    2.8579   -4.9500    0.0000 C   0  0  0  0  0  0  0  0  0  0  0  0
    2.8579   -4.1250    0.0000 C   0  0  0  0  0  0  0  0  0  0  0  0
    2.1434   -2.8875    0.0000 C   0  0  0  0  0  0  0  0  0  0  0  0
    1.4289   -2.4750    0.0000 C   0  0  0  0  0  0  0  0  0  0  0  0
    1.4289   -1.6500    0.0000 C   0  0  0  0  0  0  0  0  0  0  0  0
    0.7145   -1.2375    0.0000 O   0  0  0  0  0  0  0  0  0  0  0  0
  1  2  1  0  0  0  0
  2  3  1  0  0  0  0
  3  4  2  0  0  0  0
  4  5  1  0  0  0  0
  5  6  1  0  0  0  0
  6  7  2  0  0  0  0
  7  8  1  0  0  0  0
  8  9  2  0  0  0  0
  9 10  1  0  0  0  0
 10 11  1  0  0  0  0
 11 12  1  0  0  0  0
  9 13  1  0  0  0  0
 13 14  2  0  0  0  0
  6 14  1  0  0  0  0
  4 15  1  0  0  0  0
 15 16  2  0  0  0  0
 16 17  1  0  0  0  0
  2 17  1  0  0  0  0
 17 18  2  0  0  0  0
M  END
> <ID>
CPD_2277

$$$$
CPD_2282
  Mrv1822 09091914012D          

 25 27  0  0  0  0            999 V2000
    2.9646    0.7634    0.0000 C   0  0  0  0  0  0  0  0  0  0  0  0
    2.2501    1.1759    0.0000 N   0  0  0  0  0  0  0  0  0  0  0  0
    1.5356    0.7634    0.0000 C   0  0  0  0  0  0  0  0  0  0  0  0
    0.8212    1.1759    0.0000 C   0  0  0  0  0  0  0  0  0  0  0  0
    0.1067    0.7634    0.0000 N   0  0  0  0  0  0  0  0  0  0  0  0
   -0.6078    1.1759    0.0000 C   0  0  0  0  0  0  0  0  0  0  0  0
   -1.3222    0.7634    0.0000 C   0  0  0  0  0  0  0  0  0  0  0  0
   -2.0367    1.1759    0.0000 C   0  0  0  0  0  0  0  0  0  0  0  0
   -2.0367    2.0009    0.0000 C   0  0  0  0  0  0  0  0  0  0  0  0
   -1.3222    2.4134    0.0000 C   0  0  0  0  0  0  0  0  0  0  0  0
   -0.6078    2.0009    0.0000 C   0  0  0  0  0  0  0  0  0  0  0  0
   -2.7512    2.4134    0.0000 C   0  0  0  0  0  0  0  0  0  0  0  0
   -2.7512    3.2384    0.0000 O   0  0  0  0  0  0  0  0  0  0  0  0
   -3.4656    2.0009    0.0000 O   0  0  0  0  0  0  0  0  0  0  0  0
   -1.3222   -0.0616    0.0000 N   0  0  0  0  0  0  0  0  0  0  0  0
   -0.6548   -0.5465    0.0000 C   0  0  0  0  0  0  0  0  0  0  0  0
    0.1298   -0.2916    0.0000 C   0  0  0  0  0  0  0  0  0  0  0  0
   -0.9097   -1.3312    0.0000 C   0  0  0  0  0  0  0  0  0  0  0  0
   -1.7347   -1.3312    0.0000 C   0  0  0  0  0  0  0  0  0  0  0  0
   -1.9897   -0.5465    0.0000 C   0  0  0  0  0  0  0  0  0  0  0  0
   -2.7743   -0.2916    0.0000 C   0  0  0  0  0  0  0  0  0  0  0  0
    0.8212    2.0009    0.0000 C   0  0  0  0  0  0  0  0  0  0  0  0
    1.5356    2.4134    0.0000 C   0  0  0  0  0  0  0  0  0  0  0  0
    2.2501    2.0009    0.0000 C   0  0  0  0  0  0  0  0  0  0  0  0
    2.9646    2.4134    0.0000 O   0  0  0  0  0  0  0  0  0  0  0  0
  1  2  1  0  0  0  0
  2  3  1  0  0  0  0
  3  4  2  0  0  0  0
  4  5  1  0  0  0  0
  5  6  1  0  0  0  0
  6  7  2  0  0  0  0
  7  8  1  0  0  0  0
  8  9  2  0  0  0  0
  9 10  1  0  0  0  0
 10 11  2  0  0  0  0
  6 11  1  0  0  0  0
  9 12  1  0  0  0  0
 12 13  1  0  0  0  0
 12 14  2  0  0  0  0
  7 15  1  0  0  0  0
 15 16  1  0  0  0  0
 16 17  1  0  0  0  0
 16 18  2  0  0  0  0
 18 19  1  0  0  0  0
 19 20  2  0  0  0  0
 15 20  1  0  0  0  0
 20 21  1  0  0  0  0
  4 22  1  0  0  0  0
 22 23  2  0  0  0  0
 23 24  1  0  0  0  0
  2 24  1  0  0  0  0
 24 25  2  0  0  0  0
M  END
> <ID>
CPD_2282

$$$$
CPD_2287
  Mrv1822 09091914012D          

 26 30  0  0  0  0            999 V2000
    5.3649    1.1270    0.0000 C   0  0  0  0  0  0  0  0  0  0  0  0
    4.9524    0.4125    0.0000 N   0  0  0  0  0  0  0  0  0  0  0  0
    4.1274    0.4125    0.0000 C   0  0  0  0  0  0  0  0  0  0  0  0
    3.6425   -0.2549    0.0000 N   0  0  0  0  0  0  0  0  0  0  0  0
    2.8579   -0.0000    0.0000 C   0  0  0  0  0  0  0  0  0  0  0  0
    2.8579    0.8250    0.0000 C   0  0  0  0  0  0  0  0  0  0  0  0
    3.6425    1.0799    0.0000 S   0  0  0  0  0  0  0  0  0  0  0  0
    2.1434    1.2375    0.0000 C   0  0  0  0  0  0  0  0  0  0  0  0
    2.1434    2.0625    0.0000 O   0  0  0  0  0  0  0  0  0  0  0  0
    1.4289    0.8250    0.0000 C   0  0  0  0  0  0  0  0  0  0  0  0
    1.4289    0.0000    0.0000 C   0  0  0  0  0  0  0  0  0  0  0  0
    0.7145   -0.4125    0.0000 C   0  0  0  0  0  0  0  0  0  0  0  0
    0.0000   -0.0000    0.0000 C   0  0  0  0  0  0  0  0  0  0  0  0
    0.0000    0.8250    0.0000 C   0  0  0  0  0  0  0  0  0  0  0  0
    0.7145    1.2375    0.0000 C   0  0  0  0  0  0  0  0  0  0  0  0
    2.1434   -0.4125    0.0000 C   0  0  0  0  0  0  0  0  0  0  0  0
    2.1434   -1.2375    0.0000 O   0  0  0  0  0  0  0  0  0  0  0  0
    5.3649   -0.3020    0.0000 C   0  0  0  0  0  0  0  0  0  0  0  0
    6.1899   -0.3020    0.0000 C   0  0  0  0  0  0  0  0  0  0  0  0
    6.6024   -1.0164    0.0000 C   0  0  0  0  0  0  0  0  0  0  0  0
    6.1899   -1.7309    0.0000 C   0  0  0  0  0  0  0  0  0  0  0  0
    5.3649   -1.7309    0.0000 C   0  0  0  0  0  0  0  0  0  0  0  0
    4.9524   -1.0164    0.0000 C   0  0  0  0  0  0  0  0  0  0  0  0
    6.6024   -2.4454    0.0000 C   0  0  0  0  0  0  0  0  0  0  0  0
    7.3169   -2.8579    0.0000 C   0  0  0  0  0  0  0  0  0  0  0  0
    6.6024   -3.2704    0.0000 C   0  0  0  0  0  0  0  0  0  0  0  0
  1  2  1  0  0  0  0
  2  3  1  0  0  0  0
  3  4  2  0  0  0  0
  4  5  1  0  0  0  0
  5  6  2  0  0  0  0
  6  7  1  0  0  0  0
  3  7  1  0  0  0  0
  6  8  1  0  0  0  0
  8  9  2  0  0  0  0
  8 10  1  0  0  0  0
 10 11  2  0  0  0  0
 11 12  1  0  0  0  0
 12 13  2  0  0  0  0
 13 14  1  0  0  0  0
 14 15  2  0  0  0  0
 10 15  1  0  0  0  0
 11 16  1  0  0  0  0
  5 16  1  0  0  0  0
 16 17  2  0  0  0  0
  2 18  1  0  0  0  0
 18 19  2  0  0  0  0
 19 20  1  0  0  0  0
 20 21  2  0  0  0  0
 21 22  1  0  0  0  0
 22 23  2  0  0  0  0
 18 23  1  0  0  0  0
 21 24  1  0  0  0  0
 24 25  1  0  0  0  0
 25 26  1  0  0  0  0
 24 26  1  0  0  0  0
M  END
> <ID>
CPD_2287

$$$$
CPD_2292
  Mrv1822 09091914012D          

 35 38  0  0  0  0            999 V2000
    6.6024    6.1283    0.0000 C   0  0  0  0  0  0  0  0  0  0  0  0
    6.1899    5.4138    0.0000 C   0  0  0  0  0  0  0  0  0  0  0  0
    6.6024    4.6993    0.0000 C   0  0  0  0  0  0  0  0  0  0  0  0
    6.1899    3.9849    0.0000 C   0  0  0  0  0  0  0  0  0  0  0  0
    6.6024    3.2704    0.0000 N   0  0  0  0  0  0  0  0  0  0  0  0
    7.4274    3.2704    0.0000 C   0  0  0  0  0  0  0  0  0  0  0  0
    7.8399    2.5559    0.0000 O   0  0  0  0  0  0  0  0  0  0  0  0
    7.8399    3.9849    0.0000 O   0  0  0  0  0  0  0  0  0  0  0  0
    8.6649    3.9849    0.0000 C   0  0  0  0  0  0  0  0  0  0  0  0
    8.6649    3.1599    0.0000 C   0  0  0  0  0  0  0  0  0  0  0  0
    8.6649    4.8099    0.0000 C   0  0  0  0  0  0  0  0  0  0  0  0
    9.4899    3.9849    0.0000 C   0  0  0  0  0  0  0  0  0  0  0  0
    6.1899    2.5559    0.0000 C   0  0  0  0  0  0  0  0  0  0  0  0
    6.6024    1.8414    0.0000 N   0  0  0  0  0  0  0  0  0  0  0  0
    6.1899    1.1270    0.0000 C   0  0  0  0  0  0  0  0  0  0  0  0
    5.3649    1.1270    0.0000 C   0  0  0  0  0  0  0  0  0  0  0  0
    4.9524    1.8414    0.0000 C   0  0  0  0  0  0  0  0  0  0  0  0
    5.3649    2.5559    0.0000 C   0  0  0  0  0  0  0  0  0  0  0  0
    4.9524    0.4125    0.0000 N   0  0  0  0  0  0  0  0  0  0  0  0
    5.3649   -0.3020    0.0000 C   0  0  0  0  0  0  0  0  0  0  0  0
    4.1274    0.4125    0.0000 C   0  0  0  0  0  0  0  0  0  0  0  0
    3.6425   -0.2549    0.0000 N   0  0  0  0  0  0  0  0  0  0  0  0
    2.8579   -0.0000    0.0000 C   0  0  0  0  0  0  0  0  0  0  0  0
    2.8579    0.8250    0.0000 C   0  0  0  0  0  0  0  0  0  0  0  0
    3.6425    1.0799    0.0000 S   0  0  0  0  0  0  0  0  0  0  0  0
    2.1434    1.2375    0.0000 C   0  0  0  0  0  0  0  0  0  0  0  0
    2.1434    2.0625    0.0000 O   0  0  0  0  0  0  0  0  0  0  0  0
    1.4289    0.8250    0.0000 C   0  0  0  0  0  0  0  0  0  0  0  0
    1.4289    0.0000    0.0000 C   0  0  0  0  0  0  0  0  0  0  0  0
    0.7145   -0.4125    0.0000 C   0  0  0  0  0  0  0  0  0  0  0  0
    0.0000   -0.0000    0.0000 C   0  0  0  0  0  0  0  0  0  0  0  0
    0.0000    0.8250    0.0000 C   0  0  0  0  0  0  0  0  0  0  0  0
    0.7145    1.2375    0.0000 C   0  0  0  0  0  0  0  0  0  0  0  0
    2.1434   -0.4125    0.0000 C   0  0  0  0  0  0  0  0  0  0  0  0
    2.1434   -1.2375    0.0000 O   0  0  0  0  0  0  0  0  0  0  0  0
  1  2  1  0  0  0  0
  2  3  1  0  0  0  0
  3  4  1  0  0  0  0
  4  5  1  0  0  0  0
  5  6  1  0  0  0  0
  6  7  2  0  0  0  0
  6  8  1  0  0  0  0
  8  9  1  0  0  0  0
  9 10  1  0  0  0  0
  9 11  1  0  0  0  0
  9 12  1  0  0  0  0
  5 13  1  0  0  0  0
 13 14  2  0  0  0  0
 14 15  1  0  0  0  0
 15 16  2  0  0  0  0
 16 17  1  0  0  0  0
 17 18  2  0  0  0  0
 13 18  1  0  0  0  0
 16 19  1  0  0  0  0
 19 20  1  0  0  0  0
 19 21  1  0  0  0  0
 21 22  2  0  0  0  0
 22 23  1  0  0  0  0
 23 24  2  0  0  0  0
 24 25  1  0  0  0  0
 21 25  1  0  0  0  0
 24 26  1  0  0  0  0
 26 27  2  0  0  0  0
 26 28  1  0  0  0  0
 28 29  2  0  0  0  0
 29 30  1  0  0  0  0
 30 31  2  0  0  0  0
 31 32  1  0  0  0  0
 32 33  2  0  0  0  0
 28 33  1  0  0  0  0
 29 34  1  0  0  0  0
 23 34  1  0  0  0  0
 34 35  2  0  0  0  0
M  END
> <ID>
CPD_2292

$$$$
CPD_2297
  Mrv1822 09091914012D          

 25 28  0  0  0  0            999 V2000
    5.3649    1.1270    0.0000 C   0  0  0  0  0  0  0  0  0  0  0  0
    4.9524    0.4125    0.0000 N   0  0  0  0  0  0  0  0  0  0  0  0
    4.1274    0.4125    0.0000 C   0  0  0  0  0  0  0  0  0  0  0  0
    3.6425   -0.2549    0.0000 N   0  0  0  0  0  0  0  0  0  0  0  0
    2.8579   -0.0000    0.0000 C   0  0  0  0  0  0  0  0  0  0  0  0
    2.8579    0.8250    0.0000 C   0  0  0  0  0  0  0  0  0  0  0  0
    3.6425    1.0799    0.0000 S   0  0  0  0  0  0  0  0  0  0  0  0
    2.1434    1.2375    0.0000 C   0  0  0  0  0  0  0  0  0  0  0  0
    2.1434    2.0625    0.0000 O   0  0  0  0  0  0  0  0  0  0  0  0
    1.4289    0.8250    0.0000 C   0  0  0  0  0  0  0  0  0  0  0  0
    1.4289    0.0000    0.0000 C   0  0  0  0  0  0  0  0  0  0  0  0
    0.7145   -0.4125    0.0000 C   0  0  0  0  0  0  0  0  0  0  0  0
    0.0000   -0.0000    0.0000 C   0  0  0  0  0  0  0  0  0  0  0  0
    0.0000    0.8250    0.0000 C   0  0  0  0  0  0  0  0  0  0  0  0
    0.7145    1.2375    0.0000 C   0  0  0  0  0  0  0  0  0  0  0  0
    2.1434   -0.4125    0.0000 C   0  0  0  0  0  0  0  0  0  0  0  0
    2.1434   -1.2375    0.0000 O   0  0  0  0  0  0  0  0  0  0  0  0
    5.3649   -0.3020    0.0000 C   0  0  0  0  0  0  0  0  0  0  0  0
    6.1899   -0.3020    0.0000 C   0  0  0  0  0  0  0  0  0  0  0  0
    6.6024   -1.0164    0.0000 N   0  0  0  0  0  0  0  0  0  0  0  0
    6.1899   -1.7309    0.0000 C   0  0  0  0  0  0  0  0  0  0  0  0
    5.3649   -1.7309    0.0000 C   0  0  0  0  0  0  0  0  0  0  0  0
    4.9524   -2.4454    0.0000 Br  0  0  0  0  0  0  0  0  0  0  0  0
    4.9524   -1.0164    0.0000 C   0  0  0  0  0  0  0  0  0  0  0  0
    4.1274   -1.0164    0.0000 N   0  0  0  0  0  0  0  0  0  0  0  0
  1  2  1  0  0  0  0
  2  3  1  0  0  0  0
  3  4  2  0  0  0  0
  4  5  1  0  0  0  0
  5  6  2  0  0  0  0
  6  7  1  0  0  0  0
  3  7  1  0  0  0  0
  6  8  1  0  0  0  0
  8  9  2  0  0  0  0
  8 10  1  0  0  0  0
 10 11  2  0  0  0  0
 11 12  1  0  0  0  0
 12 13  2  0  0  0  0
 13 14  1  0  0  0  0
 14 15  2  0  0  0  0
 10 15  1  0  0  0  0
 11 16  1  0  0  0  0
  5 16  1  0  0  0  0
 16 17  2  0  0  0  0
  2 18  1  0  0  0  0
 18 19  2  0  0  0  0
 19 20  1  0  0  0  0
 20 21  2  0  0  0  0
 21 22  1  0  0  0  0
 22 23  1  0  0  0  0
 22 24  2  0  0  0  0
 18 24  1  0  0  0  0
 24 25  1  0  0  0  0
M  END
> <ID>
CPD_2297

$$$$
CPD_2302
  Mrv1822 09091914012D          

 29 30  0  0  0  0            999 V2000
   -2.1434    1.2375    0.0000 C   0  0  0  0  0  0  0  0  0  0  0  0
   -1.4289    0.8250    0.0000 C   0  0  0  0  0  0  0  0  0  0  0  0
   -1.4289   -0.0000    0.0000 N   0  0  0  0  0  0  0  0  0  0  0  0
   -0.7145   -0.4125    0.0000 C   0  0  0  0  0  0  0  0  0  0  0  0
    0.0000   -0.0000    0.0000 O   0  0  0  0  0  0  0  0  0  0  0  0
   -0.7145   -1.2375    0.0000 C   0  0  0  0  0  0  0  0  0  0  0  0
    0.0000   -1.6500    0.0000 C   0  0  0  0  0  0  0  0  0  0  0  0
    0.0000   -2.4750    0.0000 C   0  0  0  0  0  0  0  0  0  0  0  0
   -0.7145   -2.8875    0.0000 C   0  0  0  0  0  0  0  0  0  0  0  0
   -1.4289   -2.4750    0.0000 C   0  0  0  0  0  0  0  0  0  0  0  0
   -1.4289   -1.6500    0.0000 C   0  0  0  0  0  0  0  0  0  0  0  0
   -0.7145   -3.7125    0.0000 N   0  0  0  0  0  0  0  0  0  0  0  0
   -0.0000   -4.1250    0.0000 C   0  0  0  0  0  0  0  0  0  0  0  0
    0.7145   -3.7125    0.0000 C   0  0  0  0  0  0  0  0  0  0  0  0
    1.4289   -4.1250    0.0000 C   0  0  0  0  0  0  0  0  0  0  0  0
    1.4289   -4.9500    0.0000 C   0  0  0  0  0  0  0  0  0  0  0  0
    2.1434   -5.3625    0.0000 C   0  0  0  0  0  0  0  0  0  0  0  0
    2.8579   -4.9500    0.0000 O   0  0  0  0  0  0  0  0  0  0  0  0
    2.1434   -6.1875    0.0000 O   0  0  0  0  0  0  0  0  0  0  0  0
    0.7145   -5.3625    0.0000 C   0  0  0  0  0  0  0  0  0  0  0  0
   -0.0000   -4.9500    0.0000 C   0  0  0  0  0  0  0  0  0  0  0  0
    0.7145   -6.1875    0.0000 C   0  0  0  0  0  0  0  0  0  0  0  0
    0.7145   -7.0125    0.0000 F   0  0  0  0  0  0  0  0  0  0  0  0
   -0.1105   -6.1875    0.0000 F   0  0  0  0  0  0  0  0  0  0  0  0
    1.5395   -6.1875    0.0000 F   0  0  0  0  0  0  0  0  0  0  0  0
   -1.4289   -4.1250    0.0000 S   0  0  0  0  0  0  0  0  0  0  0  0
   -2.1434   -4.5375    0.0000 C   0  0  0  0  0  0  0  0  0  0  0  0
   -1.0164   -4.8395    0.0000 O   0  0  0  0  0  0  0  0  0  0  0  0
   -1.8414   -3.4105    0.0000 O   0  0  0  0  0  0  0  0  0  0  0  0
  1  2  1  0  0  0  0
  2  3  1  0  0  0  0
  3  4  1  0  0  0  0
  4  5  2  0  0  0  0
  4  6  1  0  0  0  0
  6  7  2  0  0  0  0
  7  8  1  0  0  0  0
  8  9  2  0  0  0  0
  9 10  1  0  0  0  0
 10 11  2  0  0  0  0
  6 11  1  0  0  0  0
  9 12  1  0  0  0  0
 12 13  1  0  0  0  0
 13 14  2  0  0  0  0
 14 15  1  0  0  0  0
 15 16  2  0  0  0  0
 16 17  1  0  0  0  0
 17 18  1  0  0  0  0
 17 19  2  0  0  0  0
 16 20  1  0  0  0  0
 20 21  2  0  0  0  0
 13 21  1  0  0  0  0
 20 22  1  0  0  0  0
 22 23  1  0  0  0  0
 22 24  1  0  0  0  0
 22 25  1  0  0  0  0
 12 26  1  0  0  0  0
 26 27  1  0  0  0  0
 26 28  2  0  0  0  0
 26 29  2  0  0  0  0
M  END
> <ID>
CPD_2302

$$$$
CPD_2307
  Mrv1822 09091914012D          

 36 39  0  0  0  0            999 V2000
   -3.9284   -0.6979    0.0000 C   0  0  0  0  0  0  0  0  0  0  0  0
   -3.1034   -0.6979    0.0000 C   0  0  0  0  0  0  0  0  0  0  0  0
   -2.6909    0.0165    0.0000 C   0  0  0  0  0  0  0  0  0  0  0  0
   -1.8659    0.0165    0.0000 C   0  0  0  0  0  0  0  0  0  0  0  0
   -1.4534   -0.6979    0.0000 C   0  0  0  0  0  0  0  0  0  0  0  0
   -1.8659   -1.4124    0.0000 C   0  0  0  0  0  0  0  0  0  0  0  0
   -2.6909   -1.4124    0.0000 C   0  0  0  0  0  0  0  0  0  0  0  0
   -3.1034   -2.1269    0.0000 N   0  0  0  0  0  0  0  0  0  0  0  0
   -3.9284   -2.1269    0.0000 C   0  0  0  0  0  0  0  0  0  0  0  0
   -4.3409   -2.8414    0.0000 C   0  0  0  0  0  0  0  0  0  0  0  0
   -5.1659   -2.8414    0.0000 C   0  0  0  0  0  0  0  0  0  0  0  0
   -5.5784   -2.1269    0.0000 C   0  0  0  0  0  0  0  0  0  0  0  0
   -6.4034   -2.1269    0.0000 C   0  0  0  0  0  0  0  0  0  0  0  0
   -6.8159   -1.4124    0.0000 O   0  0  0  0  0  0  0  0  0  0  0  0
   -6.8159   -2.8414    0.0000 O   0  0  0  0  0  0  0  0  0  0  0  0
   -5.1659   -1.4124    0.0000 C   0  0  0  0  0  0  0  0  0  0  0  0
   -4.3409   -1.4124    0.0000 C   0  0  0  0  0  0  0  0  0  0  0  0
   -5.5784   -0.6979    0.0000 C   0  0  0  0  0  0  0  0  0  0  0  0
   -5.9909    0.0165    0.0000 F   0  0  0  0  0  0  0  0  0  0  0  0
   -4.8640   -0.2854    0.0000 F   0  0  0  0  0  0  0  0  0  0  0  0
   -6.2929   -1.1104    0.0000 F   0  0  0  0  0  0  0  0  0  0  0  0
   -2.6909   -2.8414    0.0000 S   0  0  0  0  0  0  0  0  0  0  0  0
   -2.2784   -3.5558    0.0000 C   0  0  0  0  0  0  0  0  0  0  0  0
   -3.4054   -3.2539    0.0000 O   0  0  0  0  0  0  0  0  0  0  0  0
   -1.9765   -2.4289    0.0000 O   0  0  0  0  0  0  0  0  0  0  0  0
   -0.6284   -0.6979    0.0000 N   0  0  0  0  0  0  0  0  0  0  0  0
   -0.1435   -1.3654    0.0000 C   0  0  0  0  0  0  0  0  0  0  0  0
   -0.3984   -2.1500    0.0000 O   0  0  0  0  0  0  0  0  0  0  0  0
    0.6411   -1.1104    0.0000 C   0  0  0  0  0  0  0  0  0  0  0  0
    0.6411   -0.2854    0.0000 C   0  0  0  0  0  0  0  0  0  0  0  0
    1.3556    0.1271    0.0000 C   0  0  0  0  0  0  0  0  0  0  0  0
    2.0701   -0.2854    0.0000 C   0  0  0  0  0  0  0  0  0  0  0  0
    2.0701   -1.1104    0.0000 C   0  0  0  0  0  0  0  0  0  0  0  0
    1.3556   -1.5229    0.0000 C   0  0  0  0  0  0  0  0  0  0  0  0
   -0.1435   -0.0305    0.0000 C   0  0  0  0  0  0  0  0  0  0  0  0
   -0.3984    0.7541    0.0000 O   0  0  0  0  0  0  0  0  0  0  0  0
  1  2  1  0  0  0  0
  2  3  2  0  0  0  0
  3  4  1  0  0  0  0
  4  5  2  0  0  0  0
  5  6  1  0  0  0  0
  6  7  2  0  0  0  0
  2  7  1  0  0  0  0
  7  8  1  0  0  0  0
  8  9  1  0  0  0  0
  9 10  2  0  0  0  0
 10 11  1  0  0  0  0
 11 12  2  0  0  0  0
 12 13  1  0  0  0  0
 13 14  1  0  0  0  0
 13 15  2  0  0  0  0
 12 16  1  0  0  0  0
 16 17  2  0  0  0  0
  9 17  1  0  0  0  0
 16 18  1  0  0  0  0
 18 19  1  0  0  0  0
 18 20  1  0  0  0  0
 18 21  1  0  0  0  0
  8 22  1  0  0  0  0
 22 23  1  0  0  0  0
 22 24  2  0  0  0  0
 22 25  2  0  0  0  0
  5 26  1  0  0  0  0
 26 27  1  0  0  0  0
 27 28  2  0  0  0  0
 27 29  1  0  0  0  0
 29 30  2  0  0  0  0
 30 31  1  0  0  0  0
 31 32  2  0  0  0  0
 32 33  1  0  0  0  0
 33 34  2  0  0  0  0
 29 34  1  0  0  0  0
 30 35  1  0  0  0  0
 26 35  1  0  0  0  0
 35 36  2  0  0  0  0
M  END
> <ID>
CPD_2307

$$$$
CPD_2312
  Mrv1822 09091914012D          

 35 37  0  0  0  0            999 V2000
   -4.8525   -1.6761    0.0000 C   0  0  0  0  0  0  0  0  0  0  0  0
   -4.1381   -1.2636    0.0000 C   0  0  0  0  0  0  0  0  0  0  0  0
   -3.4236   -1.6761    0.0000 O   0  0  0  0  0  0  0  0  0  0  0  0
   -2.7091   -1.2636    0.0000 C   0  0  0  0  0  0  0  0  0  0  0  0
   -2.7091   -0.4386    0.0000 O   0  0  0  0  0  0  0  0  0  0  0  0
   -1.9947   -1.6761    0.0000 C   0  0  0  0  0  0  0  0  0  0  0  0
   -1.9947   -2.5011    0.0000 N   0  0  0  0  0  0  0  0  0  0  0  0
   -1.2802   -1.2636    0.0000 C   0  0  0  0  0  0  0  0  0  0  0  0
   -0.5657   -1.6761    0.0000 C   0  0  0  0  0  0  0  0  0  0  0  0
   -0.4795   -2.4966    0.0000 C   0  0  0  0  0  0  0  0  0  0  0  0
    0.3275   -2.6681    0.0000 N   0  0  0  0  0  0  0  0  0  0  0  0
    0.7400   -1.9537    0.0000 C   0  0  0  0  0  0  0  0  0  0  0  0
    0.1880   -1.3406    0.0000 C   0  0  0  0  0  0  0  0  0  0  0  0
    0.4429   -0.5560    0.0000 C   0  0  0  0  0  0  0  0  0  0  0  0
    1.2499   -0.3844    0.0000 C   0  0  0  0  0  0  0  0  0  0  0  0
    1.8019   -0.9975    0.0000 C   0  0  0  0  0  0  0  0  0  0  0  0
    1.5470   -1.7821    0.0000 C   0  0  0  0  0  0  0  0  0  0  0  0
    1.5048    0.4002    0.0000 N   0  0  0  0  0  0  0  0  0  0  0  0
    2.3118    0.5717    0.0000 C   0  0  0  0  0  0  0  0  0  0  0  0
    2.5667    1.3563    0.0000 C   0  0  0  0  0  0  0  0  0  0  0  0
    3.3737    1.5279    0.0000 C   0  0  0  0  0  0  0  0  0  0  0  0
    3.9257    0.9148    0.0000 C   0  0  0  0  0  0  0  0  0  0  0  0
    4.7327    1.0863    0.0000 C   0  0  0  0  0  0  0  0  0  0  0  0
    4.9876    1.8709    0.0000 O   0  0  0  0  0  0  0  0  0  0  0  0
    5.2847    0.4732    0.0000 O   0  0  0  0  0  0  0  0  0  0  0  0
    3.6708    0.1301    0.0000 C   0  0  0  0  0  0  0  0  0  0  0  0
    2.8638   -0.0414    0.0000 C   0  0  0  0  0  0  0  0  0  0  0  0
    4.2228   -0.4829    0.0000 C   0  0  0  0  0  0  0  0  0  0  0  0
    4.7748   -1.0960    0.0000 F   0  0  0  0  0  0  0  0  0  0  0  0
    3.6097   -1.0350    0.0000 F   0  0  0  0  0  0  0  0  0  0  0  0
    4.8359    0.0691    0.0000 F   0  0  0  0  0  0  0  0  0  0  0  0
    0.9528    1.0133    0.0000 S   0  0  0  0  0  0  0  0  0  0  0  0
    0.4007    1.6264    0.0000 C   0  0  0  0  0  0  0  0  0  0  0  0
    1.5659    1.5653    0.0000 O   0  0  0  0  0  0  0  0  0  0  0  0
    0.3397    0.4612    0.0000 O   0  0  0  0  0  0  0  0  0  0  0  0
  1  2  1  0  0  0  0
  2  3  1  0  0  0  0
  3  4  1  0  0  0  0
  4  5  2  0  0  0  0
  4  6  1  0  0  0  0
  6  7  1  0  0  0  0
  6  8  1  0  0  0  0
  8  9  1  0  0  0  0
  9 10  2  0  0  0  0
 10 11  1  0  0  0  0
 11 12  1  0  0  0  0
 12 13  2  0  0  0  0
  9 13  1  0  0  0  0
 13 14  1  0  0  0  0
 14 15  2  0  0  0  0
 15 16  1  0  0  0  0
 16 17  2  0  0  0  0
 12 17  1  0  0  0  0
 15 18  1  0  0  0  0
 18 19  1  0  0  0  0
 19 20  2  0  0  0  0
 20 21  1  0  0  0  0
 21 22  2  0  0  0  0
 22 23  1  0  0  0  0
 23 24  1  0  0  0  0
 23 25  2  0  0  0  0
 22 26  1  0  0  0  0
 26 27  2  0  0  0  0
 19 27  1  0  0  0  0
 26 28  1  0  0  0  0
 28 29  1  0  0  0  0
 28 30  1  0  0  0  0
 28 31  1  0  0  0  0
 18 32  1  0  0  0  0
 32 33  1  0  0  0  0
 32 34  2  0  0  0  0
 32 35  2  0  0  0  0
M  END
> <ID>
CPD_2312

$$$$
CPD_2317
  Mrv1822 09091914012D          

 31 34  0  0  0  0            999 V2000
    3.4990    1.9354    0.0000 C   0  0  0  0  0  0  0  0  0  0  0  0
    3.4990    1.1104    0.0000 C   0  0  0  0  0  0  0  0  0  0  0  0
    4.2135    0.6979    0.0000 C   0  0  0  0  0  0  0  0  0  0  0  0
    4.9279    1.1104    0.0000 C   0  0  0  0  0  0  0  0  0  0  0  0
    4.9279    1.9354    0.0000 C   0  0  0  0  0  0  0  0  0  0  0  0
    5.6424    2.3479    0.0000 C   0  0  0  0  0  0  0  0  0  0  0  0
    6.3569    1.9354    0.0000 C   0  0  0  0  0  0  0  0  0  0  0  0
    6.3569    1.1104    0.0000 C   0  0  0  0  0  0  0  0  0  0  0  0
    5.6424    0.6979    0.0000 C   0  0  0  0  0  0  0  0  0  0  0  0
    2.7845    0.6979    0.0000 N   0  0  0  0  0  0  0  0  0  0  0  0
    2.7845   -0.1271    0.0000 C   0  0  0  0  0  0  0  0  0  0  0  0
    2.0701    1.1104    0.0000 C   0  0  0  0  0  0  0  0  0  0  0  0
    1.3556    0.6979    0.0000 C   0  0  0  0  0  0  0  0  0  0  0  0
    0.6411    1.1104    0.0000 C   0  0  0  0  0  0  0  0  0  0  0  0
    0.6411    1.9354    0.0000 C   0  0  0  0  0  0  0  0  0  0  0  0
   -0.1435    2.1904    0.0000 N   0  0  0  0  0  0  0  0  0  0  0  0
   -0.6284    1.5229    0.0000 C   0  0  0  0  0  0  0  0  0  0  0  0
   -1.4534    1.5229    0.0000 O   0  0  0  0  0  0  0  0  0  0  0  0
   -0.1435    0.8555    0.0000 C   0  0  0  0  0  0  0  0  0  0  0  0
   -0.7508    0.2971    0.0000 O   0  0  0  0  0  0  0  0  0  0  0  0
    0.0196    0.0468    0.0000 C   0  0  0  0  0  0  0  0  0  0  0  0
   -0.5993   -0.4988    0.0000 C   0  0  0  0  0  0  0  0  0  0  0  0
   -0.4362   -1.3075    0.0000 O   0  0  0  0  0  0  0  0  0  0  0  0
   -1.3812   -0.2357    0.0000 C   0  0  0  0  0  0  0  0  0  0  0  0
   -2.0000   -0.7812    0.0000 C   0  0  0  0  0  0  0  0  0  0  0  0
   -2.7819   -0.5181    0.0000 C   0  0  0  0  0  0  0  0  0  0  0  0
   -2.9450    0.2906    0.0000 C   0  0  0  0  0  0  0  0  0  0  0  0
   -2.3262    0.8362    0.0000 N   0  0  0  0  0  0  0  0  0  0  0  0
   -1.5443    0.5731    0.0000 C   0  0  0  0  0  0  0  0  0  0  0  0
    1.3556    2.3479    0.0000 C   0  0  0  0  0  0  0  0  0  0  0  0
    2.0701    1.9354    0.0000 C   0  0  0  0  0  0  0  0  0  0  0  0
  1  2  1  0  0  0  0
  2  3  1  0  0  0  0
  3  4  1  0  0  0  0
  4  5  1  0  0  0  0
  5  6  1  0  0  0  0
  6  7  1  0  0  0  0
  7  8  1  0  0  0  0
  8  9  1  0  0  0  0
  4  9  1  0  0  0  0
  2 10  1  0  0  0  0
 10 11  1  0  0  0  0
 10 12  1  0  0  0  0
 12 13  2  0  0  0  0
 13 14  1  0  0  0  0
 14 15  2  0  0  0  0
 15 16  1  0  0  0  0
 16 17  1  0  0  0  0
 17 18  2  0  0  0  0
 17 19  1  0  0  0  0
 14 19  1  0  0  0  0
 19 20  1  0  0  0  0
 19 21  1  0  0  0  0
 21 22  1  0  0  0  0
 22 23  2  0  0  0  0
 22 24  1  0  0  0  0
 24 25  2  0  0  0  0
 25 26  1  0  0  0  0
 26 27  2  0  0  0  0
 27 28  1  0  0  0  0
 28 29  2  0  0  0  0
 24 29  1  0  0  0  0
 15 30  1  0  0  0  0
 30 31  2  0  0  0  0
 12 31  1  0  0  0  0
M  END
> <ID>
CPD_2317

$$$$
CPD_2322
  Mrv1822 09091914012D          

 28 31  0  0  0  0            999 V2000
   -3.9284   -0.6979    0.0000 C   0  0  0  0  0  0  0  0  0  0  0  0
   -3.1034   -0.6979    0.0000 C   0  0  0  0  0  0  0  0  0  0  0  0
   -2.6909    0.0165    0.0000 C   0  0  0  0  0  0  0  0  0  0  0  0
   -1.8659    0.0165    0.0000 C   0  0  0  0  0  0  0  0  0  0  0  0
   -1.4534   -0.6979    0.0000 C   0  0  0  0  0  0  0  0  0  0  0  0
   -1.8659   -1.4124    0.0000 C   0  0  0  0  0  0  0  0  0  0  0  0
   -2.6909   -1.4124    0.0000 C   0  0  0  0  0  0  0  0  0  0  0  0
   -0.6284   -0.6979    0.0000 C   0  0  0  0  0  0  0  0  0  0  0  0
   -0.1435   -1.3654    0.0000 N   0  0  0  0  0  0  0  0  0  0  0  0
    0.6411   -1.1104    0.0000 C   0  0  0  0  0  0  0  0  0  0  0  0
    0.6411   -0.2854    0.0000 C   0  0  0  0  0  0  0  0  0  0  0  0
    1.3556    0.1271    0.0000 C   0  0  0  0  0  0  0  0  0  0  0  0
    2.0701   -0.2854    0.0000 N   0  0  0  0  0  0  0  0  0  0  0  0
    2.0701   -1.1104    0.0000 C   0  0  0  0  0  0  0  0  0  0  0  0
    1.3556   -1.5229    0.0000 C   0  0  0  0  0  0  0  0  0  0  0  0
    2.7845    0.1271    0.0000 C   0  0  0  0  0  0  0  0  0  0  0  0
    2.7845    0.9521    0.0000 C   0  0  0  0  0  0  0  0  0  0  0  0
    2.0701    1.3646    0.0000 C   0  0  0  0  0  0  0  0  0  0  0  0
    1.3556    0.9521    0.0000 C   0  0  0  0  0  0  0  0  0  0  0  0
    0.6411    1.3646    0.0000 C   0  0  0  0  0  0  0  0  0  0  0  0
   -0.0734    0.9521    0.0000 O   0  0  0  0  0  0  0  0  0  0  0  0
    0.6411    2.1896    0.0000 O   0  0  0  0  0  0  0  0  0  0  0  0
    3.4990    1.3646    0.0000 C   0  0  0  0  0  0  0  0  0  0  0  0
    4.2135    0.9521    0.0000 C   0  0  0  0  0  0  0  0  0  0  0  0
    4.2135    0.1271    0.0000 C   0  0  0  0  0  0  0  0  0  0  0  0
    3.4990   -0.2854    0.0000 C   0  0  0  0  0  0  0  0  0  0  0  0
    3.4990   -1.1104    0.0000 Cl  0  0  0  0  0  0  0  0  0  0  0  0
   -0.1435   -0.0305    0.0000 S   0  0  0  0  0  0  0  0  0  0  0  0
  1  2  1  0  0  0  0
  2  3  2  0  0  0  0
  3  4  1  0  0  0  0
  4  5  2  0  0  0  0
  5  6  1  0  0  0  0
  6  7  2  0  0  0  0
  2  7  1  0  0  0  0
  5  8  1  0  0  0  0
  8  9  2  0  0  0  0
  9 10  1  0  0  0  0
 10 11  2  0  0  0  0
 11 12  1  0  0  0  0
 12 13  1  0  0  0  0
 13 14  1  0  0  0  0
 14 15  1  0  0  0  0
 10 15  1  0  0  0  0
 13 16  1  0  0  0  0
 16 17  2  0  0  0  0
 17 18  1  0  0  0  0
 18 19  1  0  0  0  0
 19 20  1  0  0  0  0
 20 21  1  0  0  0  0
 20 22  2  0  0  0  0
 17 23  1  0  0  0  0
 23 24  2  0  0  0  0
 24 25  1  0  0  0  0
 25 26  2  0  0  0  0
 16 26  1  0  0  0  0
 26 27  1  0  0  0  0
 11 28  1  0  0  0  0
  8 28  1  0  0  0  0
M  END
> <ID>
CPD_2322

$$$$
CPD_2327
  Mrv1822 09091914012D          

 26 28  0  0  0  0            999 V2000
    2.7512   -0.0616    0.0000 C   0  0  0  0  0  0  0  0  0  0  0  0
    3.4656   -0.4741    0.0000 C   0  0  0  0  0  0  0  0  0  0  0  0
    3.4656   -1.2991    0.0000 O   0  0  0  0  0  0  0  0  0  0  0  0
    4.1801   -1.7116    0.0000 C   0  0  0  0  0  0  0  0  0  0  0  0
    4.8946   -1.2991    0.0000 O   0  0  0  0  0  0  0  0  0  0  0  0
    4.1801   -2.5366    0.0000 C   0  0  0  0  0  0  0  0  0  0  0  0
    4.8476   -3.0215    0.0000 C   0  0  0  0  0  0  0  0  0  0  0  0
    4.5926   -3.8062    0.0000 C   0  0  0  0  0  0  0  0  0  0  0  0
    3.7676   -3.8062    0.0000 N   0  0  0  0  0  0  0  0  0  0  0  0
    3.5127   -3.0215    0.0000 N   0  0  0  0  0  0  0  0  0  0  0  0
    5.0775   -4.4736    0.0000 C   0  0  0  0  0  0  0  0  0  0  0  0
    5.8980   -4.3874    0.0000 C   0  0  0  0  0  0  0  0  0  0  0  0
    6.3829   -5.0548    0.0000 C   0  0  0  0  0  0  0  0  0  0  0  0
    6.0474   -5.8085    0.0000 C   0  0  0  0  0  0  0  0  0  0  0  0
    6.5323   -6.4759    0.0000 N   0  0  0  0  0  0  0  0  0  0  0  0
    6.1968   -7.2296    0.0000 C   0  0  0  0  0  0  0  0  0  0  0  0
    6.6817   -7.8970    0.0000 C   0  0  0  0  0  0  0  0  0  0  0  0
    6.3461   -8.6507    0.0000 C   0  0  0  0  0  0  0  0  0  0  0  0
    5.5256   -8.7369    0.0000 C   0  0  0  0  0  0  0  0  0  0  0  0
    5.0407   -8.0695    0.0000 C   0  0  0  0  0  0  0  0  0  0  0  0
    5.3763   -7.3158    0.0000 C   0  0  0  0  0  0  0  0  0  0  0  0
    4.8914   -6.6484    0.0000 O   0  0  0  0  0  0  0  0  0  0  0  0
    5.1901   -9.4906    0.0000 C   0  0  0  0  0  0  0  0  0  0  0  0
    4.8545  -10.2443    0.0000 N   0  0  0  0  0  0  0  0  0  0  0  0
    5.2269   -5.8947    0.0000 C   0  0  0  0  0  0  0  0  0  0  0  0
    4.7420   -5.2273    0.0000 C   0  0  0  0  0  0  0  0  0  0  0  0
  1  2  1  0  0  0  0
  2  3  1  0  0  0  0
  3  4  1  0  0  0  0
  4  5  2  0  0  0  0
  4  6  1  0  0  0  0
  6  7  2  0  0  0  0
  7  8  1  0  0  0  0
  8  9  2  0  0  0  0
  9 10  1  0  0  0  0
  6 10  1  0  0  0  0
  8 11  1  0  0  0  0
 11 12  2  0  0  0  0
 12 13  1  0  0  0  0
 13 14  2  0  0  0  0
 14 15  1  0  0  0  0
 15 16  1  0  0  0  0
 16 17  2  0  0  0  0
 17 18  1  0  0  0  0
 18 19  2  0  0  0  0
 19 20  1  0  0  0  0
 20 21  2  0  0  0  0
 16 21  1  0  0  0  0
 21 22  1  0  0  0  0
 19 23  1  0  0  0  0
 23 24  3  0  0  0  0
 14 25  1  0  0  0  0
 25 26  2  0  0  0  0
 11 26  1  0  0  0  0
M  END
> <ID>
CPD_2327

$$$$
CPD_2332
  Mrv1822 09091914012D          

 24 26  0  0  0  0            999 V2000
    0.7145   -0.4125    0.0000 C   0  0  0  0  0  0  0  0  0  0  0  0
    0.7145   -1.2375    0.0000 C   0  0  0  0  0  0  0  0  0  0  0  0
    1.4289   -1.6500    0.0000 C   0  0  0  0  0  0  0  0  0  0  0  0
    2.1434   -1.2375    0.0000 N   0  0  0  0  0  0  0  0  0  0  0  0
    2.1434   -0.4125    0.0000 C   0  0  0  0  0  0  0  0  0  0  0  0
    1.4289   -0.0000    0.0000 C   0  0  0  0  0  0  0  0  0  0  0  0
    1.4289    0.8250    0.0000 C   0  0  0  0  0  0  0  0  0  0  0  0
    2.1434    1.2375    0.0000 C   0  0  0  0  0  0  0  0  0  0  0  0
    2.8579    0.8250    0.0000 C   0  0  0  0  0  0  0  0  0  0  0  0
    2.8579   -0.0000    0.0000 C   0  0  0  0  0  0  0  0  0  0  0  0
    3.5724   -0.4125    0.0000 O   0  0  0  0  0  0  0  0  0  0  0  0
    2.1434    2.0625    0.0000 C   0  0  0  0  0  0  0  0  0  0  0  0
    2.1434    2.8875    0.0000 N   0  0  0  0  0  0  0  0  0  0  0  0
    1.4289   -2.4750    0.0000 C   0  0  0  0  0  0  0  0  0  0  0  0
    0.7145   -2.8875    0.0000 C   0  0  0  0  0  0  0  0  0  0  0  0
    0.0000   -2.4750    0.0000 C   0  0  0  0  0  0  0  0  0  0  0  0
    0.0000   -1.6500    0.0000 C   0  0  0  0  0  0  0  0  0  0  0  0
    0.7145   -3.7125    0.0000 C   0  0  0  0  0  0  0  0  0  0  0  0
    1.4289   -4.1250    0.0000 C   0  0  0  0  0  0  0  0  0  0  0  0
    1.4289   -4.9500    0.0000 C   0  0  0  0  0  0  0  0  0  0  0  0
    0.7145   -5.3625    0.0000 C   0  0  0  0  0  0  0  0  0  0  0  0
    0.7145   -6.1875    0.0000 N   0  0  0  0  0  0  0  0  0  0  0  0
   -0.0000   -4.9500    0.0000 C   0  0  0  0  0  0  0  0  0  0  0  0
    0.0000   -4.1250    0.0000 C   0  0  0  0  0  0  0  0  0  0  0  0
  1  2  1  0  0  0  0
  2  3  2  0  0  0  0
  3  4  1  0  0  0  0
  4  5  1  0  0  0  0
  5  6  2  0  0  0  0
  6  7  1  0  0  0  0
  7  8  2  0  0  0  0
  8  9  1  0  0  0  0
  9 10  2  0  0  0  0
  5 10  1  0  0  0  0
 10 11  1  0  0  0  0
  8 12  1  0  0  0  0
 12 13  3  0  0  0  0
  3 14  1  0  0  0  0
 14 15  2  0  0  0  0
 15 16  1  0  0  0  0
 16 17  2  0  0  0  0
  2 17  1  0  0  0  0
 15 18  1  0  0  0  0
 18 19  2  0  0  0  0
 19 20  1  0  0  0  0
 20 21  2  0  0  0  0
 21 22  1  0  0  0  0
 21 23  1  0  0  0  0
 23 24  2  0  0  0  0
 18 24  1  0  0  0  0
M  END
> <ID>
CPD_2332

$$$$
CPD_2337
  Mrv1822 09091914012D          

 20 22  0  0  0  0            999 V2000
   -0.0000   -2.4750    0.0000 O   0  0  0  0  0  0  0  0  0  0  0  0
   -0.7145   -2.8875    0.0000 C   0  0  0  0  0  0  0  0  0  0  0  0
   -0.7145   -3.7125    0.0000 C   0  0  0  0  0  0  0  0  0  0  0  0
   -1.4289   -4.1250    0.0000 C   0  0  0  0  0  0  0  0  0  0  0  0
   -2.1434   -3.7125    0.0000 C   0  0  0  0  0  0  0  0  0  0  0  0
   -2.1434   -2.8875    0.0000 C   0  0  0  0  0  0  0  0  0  0  0  0
   -1.4289   -2.4750    0.0000 C   0  0  0  0  0  0  0  0  0  0  0  0
   -1.4289   -1.6500    0.0000 N   0  0  0  0  0  0  0  0  0  0  0  0
   -0.7145   -1.2375    0.0000 C   0  0  0  0  0  0  0  0  0  0  0  0
    0.0000   -1.6500    0.0000 C   0  0  0  0  0  0  0  0  0  0  0  0
    0.7145   -1.2375    0.0000 C   0  0  0  0  0  0  0  0  0  0  0  0
    0.7145   -0.4125    0.0000 C   0  0  0  0  0  0  0  0  0  0  0  0
    1.4289   -0.0000    0.0000 C   0  0  0  0  0  0  0  0  0  0  0  0
    2.1434   -0.4125    0.0000 C   0  0  0  0  0  0  0  0  0  0  0  0
    2.1434   -1.2375    0.0000 O   0  0  0  0  0  0  0  0  0  0  0  0
    1.4289   -1.6500    0.0000 C   0  0  0  0  0  0  0  0  0  0  0  0
    0.0000   -0.0000    0.0000 C   0  0  0  0  0  0  0  0  0  0  0  0
   -0.7145   -0.4125    0.0000 C   0  0  0  0  0  0  0  0  0  0  0  0
   -1.4289   -4.9500    0.0000 C   0  0  0  0  0  0  0  0  0  0  0  0
   -1.4289   -5.7750    0.0000 N   0  0  0  0  0  0  0  0  0  0  0  0
  1  2  1  0  0  0  0
  2  3  2  0  0  0  0
  3  4  1  0  0  0  0
  4  5  2  0  0  0  0
  5  6  1  0  0  0  0
  6  7  2  0  0  0  0
  2  7  1  0  0  0  0
  7  8  1  0  0  0  0
  8  9  1  0  0  0  0
  9 10  2  0  0  0  0
 10 11  1  0  0  0  0
 11 12  2  0  0  0  0
 12 13  1  0  0  0  0
 13 14  1  0  0  0  0
 14 15  1  0  0  0  0
 15 16  1  0  0  0  0
 11 16  1  0  0  0  0
 12 17  1  0  0  0  0
 17 18  2  0  0  0  0
  9 18  1  0  0  0  0
  4 19  1  0  0  0  0
 19 20  3  0  0  0  0
M  END
> <ID>
CPD_2337

$$$$
CPD_2342
  Mrv1822 09091914012D          

 32 35  0  0  0  0            999 V2000
   -3.9760    1.6802    0.0000 N   0  0  0  0  0  0  0  0  0  0  0  0
   -3.3630    1.1281    0.0000 C   0  0  0  0  0  0  0  0  0  0  0  0
   -2.5783    1.3831    0.0000 C   0  0  0  0  0  0  0  0  0  0  0  0
   -1.9652    0.8310    0.0000 C   0  0  0  0  0  0  0  0  0  0  0  0
   -2.1368    0.0241    0.0000 C   0  0  0  0  0  0  0  0  0  0  0  0
   -1.5237   -0.5280    0.0000 O   0  0  0  0  0  0  0  0  0  0  0  0
   -1.6952   -1.3349    0.0000 C   0  0  0  0  0  0  0  0  0  0  0  0
   -1.0821   -1.8870    0.0000 C   0  0  0  0  0  0  0  0  0  0  0  0
   -1.2536   -2.6940    0.0000 C   0  0  0  0  0  0  0  0  0  0  0  0
   -2.0382   -2.9489    0.0000 C   0  0  0  0  0  0  0  0  0  0  0  0
   -2.6513   -2.3969    0.0000 C   0  0  0  0  0  0  0  0  0  0  0  0
   -2.4798   -1.5899    0.0000 C   0  0  0  0  0  0  0  0  0  0  0  0
   -0.2975   -1.6320    0.0000 N   0  0  0  0  0  0  0  0  0  0  0  0
   -0.0425   -2.4167    0.0000 C   0  0  0  0  0  0  0  0  0  0  0  0
    0.7825   -2.4167    0.0000 C   0  0  0  0  0  0  0  0  0  0  0  0
    1.0374   -1.6320    0.0000 C   0  0  0  0  0  0  0  0  0  0  0  0
    0.3700   -1.1471    0.0000 C   0  0  0  0  0  0  0  0  0  0  0  0
    0.7750   -0.4284    0.0000 C   0  0  0  0  0  0  0  0  0  0  0  0
    1.5999   -0.4197    0.0000 O   0  0  0  0  0  0  0  0  0  0  0  0
    0.8526    0.3930    0.0000 O   0  0  0  0  0  0  0  0  0  0  0  0
   -0.0350   -0.4284    0.0000 C   0  0  0  0  0  0  0  0  0  0  0  0
   -0.8600   -0.4197    0.0000 C   0  0  0  0  0  0  0  0  0  0  0  0
   -1.2650    0.2990    0.0000 C   0  0  0  0  0  0  0  0  0  0  0  0
   -0.8450    1.0091    0.0000 C   0  0  0  0  0  0  0  0  0  0  0  0
   -0.0201    1.0005    0.0000 C   0  0  0  0  0  0  0  0  0  0  0  0
    0.3849    0.2817    0.0000 C   0  0  0  0  0  0  0  0  0  0  0  0
   -2.9214   -0.2309    0.0000 C   0  0  0  0  0  0  0  0  0  0  0  0
   -3.5345    0.3211    0.0000 C   0  0  0  0  0  0  0  0  0  0  0  0
   -4.3191    0.0662    0.0000 C   0  0  0  0  0  0  0  0  0  0  0  0
   -5.1037   -0.1887    0.0000 F   0  0  0  0  0  0  0  0  0  0  0  0
   -4.5740    0.8508    0.0000 F   0  0  0  0  0  0  0  0  0  0  0  0
   -4.0642   -0.7184    0.0000 F   0  0  0  0  0  0  0  0  0  0  0  0
  1  2  1  0  0  0  0
  2  3  2  0  0  0  0
  3  4  1  0  0  0  0
  4  5  2  0  0  0  0
  5  6  1  0  0  0  0
  6  7  1  0  0  0  0
  7  8  2  0  0  0  0
  8  9  1  0  0  0  0
  9 10  2  0  0  0  0
 10 11  1  0  0  0  0
 11 12  2  0  0  0  0
  7 12  1  0  0  0  0
  8 13  1  0  0  0  0
 13 14  1  0  0  0  0
 14 15  1  0  0  0  0
 15 16  1  0  0  0  0
 16 17  1  0  0  0  0
 13 17  1  0  0  0  0
 17 18  1  0  0  0  0
 18 19  1  0  0  0  0
 18 20  2  0  0  0  0
 17 21  1  0  0  0  0
 21 22  2  0  0  0  0
 22 23  1  0  0  0  0
 23 24  2  0  0  0  0
 24 25  1  0  0  0  0
 25 26  2  0  0  0  0
 21 26  1  0  0  0  0
  5 27  1  0  0  0  0
 27 28  2  0  0  0  0
  2 28  1  0  0  0  0
 28 29  1  0  0  0  0
 29 30  1  0  0  0  0
 29 31  1  0  0  0  0
 29 32  1  0  0  0  0
M  END
> <ID>
CPD_2342

$$$$
CPD_2347
  Mrv1822 09091914012D          

 34 38  0  0  0  0            999 V2000
   -5.0782    3.6775    0.0000 C   0  0  0  0  0  0  0  0  0  0  0  0
   -4.9067    2.8705    0.0000 C   0  0  0  0  0  0  0  0  0  0  0  0
   -4.1221    2.6156    0.0000 C   0  0  0  0  0  0  0  0  0  0  0  0
   -3.9505    1.8086    0.0000 C   0  0  0  0  0  0  0  0  0  0  0  0
   -4.5636    1.2566    0.0000 C   0  0  0  0  0  0  0  0  0  0  0  0
   -5.3483    1.5115    0.0000 C   0  0  0  0  0  0  0  0  0  0  0  0
   -5.5198    2.3185    0.0000 C   0  0  0  0  0  0  0  0  0  0  0  0
   -4.3921    0.4496    0.0000 C   0  0  0  0  0  0  0  0  0  0  0  0
   -3.6075    0.1947    0.0000 C   0  0  0  0  0  0  0  0  0  0  0  0
   -3.4360   -0.6123    0.0000 C   0  0  0  0  0  0  0  0  0  0  0  0
   -4.0491   -1.1643    0.0000 N   0  0  0  0  0  0  0  0  0  0  0  0
   -4.8337   -0.9094    0.0000 C   0  0  0  0  0  0  0  0  0  0  0  0
   -5.4468   -1.4614    0.0000 N   0  0  0  0  0  0  0  0  0  0  0  0
   -5.0052   -0.1024    0.0000 N   0  0  0  0  0  0  0  0  0  0  0  0
   -2.6513   -0.8672    0.0000 C   0  0  0  0  0  0  0  0  0  0  0  0
   -2.0382   -0.3152    0.0000 C   0  0  0  0  0  0  0  0  0  0  0  0
   -1.2536   -0.5701    0.0000 C   0  0  0  0  0  0  0  0  0  0  0  0
   -1.0821   -1.3771    0.0000 C   0  0  0  0  0  0  0  0  0  0  0  0
   -1.6952   -1.9291    0.0000 C   0  0  0  0  0  0  0  0  0  0  0  0
   -2.4798   -1.6742    0.0000 C   0  0  0  0  0  0  0  0  0  0  0  0
   -0.2975   -1.6320    0.0000 N   0  0  0  0  0  0  0  0  0  0  0  0
   -0.0425   -2.4167    0.0000 C   0  0  0  0  0  0  0  0  0  0  0  0
    0.7825   -2.4167    0.0000 C   0  0  0  0  0  0  0  0  0  0  0  0
    1.0374   -1.6320    0.0000 C   0  0  0  0  0  0  0  0  0  0  0  0
    0.3700   -1.1471    0.0000 C   0  0  0  0  0  0  0  0  0  0  0  0
    0.7750   -0.4284    0.0000 C   0  0  0  0  0  0  0  0  0  0  0  0
    1.5999   -0.4197    0.0000 O   0  0  0  0  0  0  0  0  0  0  0  0
    0.8526    0.3930    0.0000 O   0  0  0  0  0  0  0  0  0  0  0  0
   -0.0350   -0.4284    0.0000 C   0  0  0  0  0  0  0  0  0  0  0  0
   -0.8600   -0.4197    0.0000 C   0  0  0  0  0  0  0  0  0  0  0  0
   -1.2650    0.2990    0.0000 C   0  0  0  0  0  0  0  0  0  0  0  0
   -0.8450    1.0091    0.0000 C   0  0  0  0  0  0  0  0  0  0  0  0
   -0.0201    1.0005    0.0000 C   0  0  0  0  0  0  0  0  0  0  0  0
    0.3849    0.2817    0.0000 C   0  0  0  0  0  0  0  0  0  0  0  0
  1  2  1  0  0  0  0
  2  3  2  0  0  0  0
  3  4  1  0  0  0  0
  4  5  2  0  0  0  0
  5  6  1  0  0  0  0
  6  7  2  0  0  0  0
  2  7  1  0  0  0  0
  5  8  1  0  0  0  0
  8  9  2  0  0  0  0
  9 10  1  0  0  0  0
 10 11  2  0  0  0  0
 11 12  1  0  0  0  0
 12 13  1  0  0  0  0
 12 14  2  0  0  0  0
  8 14  1  0  0  0  0
 10 15  1  0  0  0  0
 15 16  2  0  0  0  0
 16 17  1  0  0  0  0
 17 18  2  0  0  0  0
 18 19  1  0  0  0  0
 19 20  2  0  0  0  0
 15 20  1  0  0  0  0
 18 21  1  0  0  0  0
 21 22  1  0  0  0  0
 22 23  1  0  0  0  0
 23 24  1  0  0  0  0
 24 25  1  0  0  0  0
 21 25  1  0  0  0  0
 25 26  1  0  0  0  0
 26 27  1  0  0  0  0
 26 28  2  0  0  0  0
 25 29  1  0  0  0  0
 29 30  2  0  0  0  0
 30 31  1  0  0  0  0
 31 32  2  0  0  0  0
 32 33  1  0  0  0  0
 33 34  2  0  0  0  0
 29 34  1  0  0  0  0
M  END
> <ID>
CPD_2347

$$$$
CPD_2352
  Mrv1822 09091914012D          

 27 30  0  0  0  0            999 V2000
    4.7812    3.5854    0.0000 C   0  0  0  0  0  0  0  0  0  0  0  0
    4.0668    3.1729    0.0000 O   0  0  0  0  0  0  0  0  0  0  0  0
    4.0668    2.3479    0.0000 C   0  0  0  0  0  0  0  0  0  0  0  0
    4.7812    1.9354    0.0000 O   0  0  0  0  0  0  0  0  0  0  0  0
    3.3523    1.9354    0.0000 C   0  0  0  0  0  0  0  0  0  0  0  0
    3.3523    1.1104    0.0000 C   0  0  0  0  0  0  0  0  0  0  0  0
    2.6378    0.6979    0.0000 C   0  0  0  0  0  0  0  0  0  0  0  0
    1.9233    1.1104    0.0000 C   0  0  0  0  0  0  0  0  0  0  0  0
    1.1387    0.8555    0.0000 C   0  0  0  0  0  0  0  0  0  0  0  0
    0.6538    1.5229    0.0000 N   0  0  0  0  0  0  0  0  0  0  0  0
    1.1387    2.1904    0.0000 N   0  0  0  0  0  0  0  0  0  0  0  0
    1.9233    1.9354    0.0000 C   0  0  0  0  0  0  0  0  0  0  0  0
    2.6378    2.3479    0.0000 C   0  0  0  0  0  0  0  0  0  0  0  0
    4.0668    0.6979    0.0000 N   0  0  0  0  0  0  0  0  0  0  0  0
    4.8204    1.0335    0.0000 C   0  0  0  0  0  0  0  0  0  0  0  0
    5.3725    0.4204    0.0000 C   0  0  0  0  0  0  0  0  0  0  0  0
    4.9600   -0.2941    0.0000 C   0  0  0  0  0  0  0  0  0  0  0  0
    4.1530   -0.1225    0.0000 C   0  0  0  0  0  0  0  0  0  0  0  0
    3.3479   -0.3025    0.0000 C   0  0  0  0  0  0  0  0  0  0  0  0
    2.6855   -0.7944    0.0000 O   0  0  0  0  0  0  0  0  0  0  0  0
    2.7894    0.3048    0.0000 O   0  0  0  0  0  0  0  0  0  0  0  0
    3.8899   -0.9044    0.0000 C   0  0  0  0  0  0  0  0  0  0  0  0
    4.4354   -1.5233    0.0000 C   0  0  0  0  0  0  0  0  0  0  0  0
    4.1723   -2.3052    0.0000 C   0  0  0  0  0  0  0  0  0  0  0  0
    3.3636   -2.4683    0.0000 C   0  0  0  0  0  0  0  0  0  0  0  0
    2.8180   -1.8494    0.0000 C   0  0  0  0  0  0  0  0  0  0  0  0
    3.0811   -1.0675    0.0000 C   0  0  0  0  0  0  0  0  0  0  0  0
  1  2  1  0  0  0  0
  2  3  1  0  0  0  0
  3  4  2  0  0  0  0
  3  5  1  0  0  0  0
  5  6  2  0  0  0  0
  6  7  1  0  0  0  0
  7  8  2  0  0  0  0
  8  9  1  0  0  0  0
  9 10  2  0  0  0  0
 10 11  1  0  0  0  0
 11 12  1  0  0  0  0
  8 12  1  0  0  0  0
 12 13  2  0  0  0  0
  5 13  1  0  0  0  0
  6 14  1  0  0  0  0
 14 15  1  0  0  0  0
 15 16  1  0  0  0  0
 16 17  1  0  0  0  0
 17 18  1  0  0  0  0
 14 18  1  0  0  0  0
 18 19  1  0  0  0  0
 19 20  1  0  0  0  0
 19 21  2  0  0  0  0
 18 22  1  0  0  0  0
 22 23  2  0  0  0  0
 23 24  1  0  0  0  0
 24 25  2  0  0  0  0
 25 26  1  0  0  0  0
 26 27  2  0  0  0  0
 22 27  1  0  0  0  0
M  END
> <ID>
CPD_2352

$$$$
CPD_2357
  Mrv1822 09091914012D          

 29 32  0  0  0  0            999 V2000
    2.1434   -5.3625    0.0000 O   0  0  0  0  0  0  0  0  0  0  0  0
    1.4289   -4.9500    0.0000 C   0  0  0  0  0  0  0  0  0  0  0  0
    0.7145   -5.3625    0.0000 C   0  0  0  0  0  0  0  0  0  0  0  0
    0.0000   -4.9500    0.0000 C   0  0  0  0  0  0  0  0  0  0  0  0
    0.0000   -4.1250    0.0000 C   0  0  0  0  0  0  0  0  0  0  0  0
   -0.7145   -3.7125    0.0000 N   0  0  0  0  0  0  0  0  0  0  0  0
   -0.7145   -2.8875    0.0000 C   0  0  0  0  0  0  0  0  0  0  0  0
   -1.4289   -2.4750    0.0000 C   0  0  0  0  0  0  0  0  0  0  0  0
   -1.4289   -1.6500    0.0000 C   0  0  0  0  0  0  0  0  0  0  0  0
   -0.7145   -1.2375    0.0000 C   0  0  0  0  0  0  0  0  0  0  0  0
    0.0000   -1.6500    0.0000 N   0  0  0  0  0  0  0  0  0  0  0  0
    0.0000   -2.4750    0.0000 C   0  0  0  0  0  0  0  0  0  0  0  0
    0.7145   -1.2375    0.0000 C   0  0  0  0  0  0  0  0  0  0  0  0
    1.4289   -1.6500    0.0000 O   0  0  0  0  0  0  0  0  0  0  0  0
    0.7145   -0.4125    0.0000 C   0  0  0  0  0  0  0  0  0  0  0  0
    0.0000    0.0000    0.0000 C   0  0  0  0  0  0  0  0  0  0  0  0
   -0.7145   -0.4125    0.0000 Cl  0  0  0  0  0  0  0  0  0  0  0  0
    0.0000    0.8250    0.0000 C   0  0  0  0  0  0  0  0  0  0  0  0
    0.7145    1.2375    0.0000 C   0  0  0  0  0  0  0  0  0  0  0  0
    0.7145    2.0625    0.0000 Cl  0  0  0  0  0  0  0  0  0  0  0  0
    1.4289    0.8250    0.0000 C   0  0  0  0  0  0  0  0  0  0  0  0
    1.4289    0.0000    0.0000 C   0  0  0  0  0  0  0  0  0  0  0  0
    0.7145   -3.7125    0.0000 C   0  0  0  0  0  0  0  0  0  0  0  0
    1.4289   -4.1250    0.0000 C   0  0  0  0  0  0  0  0  0  0  0  0
    0.7145   -6.1875    0.0000 C   0  0  0  0  0  0  0  0  0  0  0  0
    1.3819   -6.6724    0.0000 N   0  0  0  0  0  0  0  0  0  0  0  0
    1.1270   -7.4570    0.0000 N   0  0  0  0  0  0  0  0  0  0  0  0
    0.3020   -7.4570    0.0000 C   0  0  0  0  0  0  0  0  0  0  0  0
    0.0470   -6.6724    0.0000 C   0  0  0  0  0  0  0  0  0  0  0  0
  1  2  1  0  0  0  0
  2  3  2  0  0  0  0
  3  4  1  0  0  0  0
  4  5  2  0  0  0  0
  5  6  1  0  0  0  0
  6  7  1  0  0  0  0
  7  8  1  0  0  0  0
  8  9  1  0  0  0  0
  9 10  1  0  0  0  0
 10 11  1  0  0  0  0
 11 12  1  0  0  0  0
  7 12  1  0  0  0  0
 11 13  1  0  0  0  0
 13 14  2  0  0  0  0
 13 15  1  0  0  0  0
 15 16  2  0  0  0  0
 16 17  1  0  0  0  0
 16 18  1  0  0  0  0
 18 19  2  0  0  0  0
 19 20  1  0  0  0  0
 19 21  1  0  0  0  0
 21 22  2  0  0  0  0
 15 22  1  0  0  0  0
  5 23  1  0  0  0  0
 23 24  2  0  0  0  0
  2 24  1  0  0  0  0
  3 25  1  0  0  0  0
 25 26  2  0  0  0  0
 26 27  1  0  0  0  0
 27 28  1  0  0  0  0
 28 29  2  0  0  0  0
 25 29  1  0  0  0  0
M  END
> <ID>
CPD_2357

$$$$
CPD_2362
  Mrv1822 09091914012D          

 27 29  0  0  0  0            999 V2000
    5.6091    1.4652    0.0000 F   0  0  0  0  0  0  0  0  0  0  0  0
    5.6091    0.6402    0.0000 C   0  0  0  0  0  0  0  0  0  0  0  0
    4.7841    0.6402    0.0000 F   0  0  0  0  0  0  0  0  0  0  0  0
    6.4341    0.6402    0.0000 F   0  0  0  0  0  0  0  0  0  0  0  0
    5.6091   -0.1848    0.0000 C   0  0  0  0  0  0  0  0  0  0  0  0
    6.3235   -0.5973    0.0000 C   0  0  0  0  0  0  0  0  0  0  0  0
    6.3235   -1.4223    0.0000 C   0  0  0  0  0  0  0  0  0  0  0  0
    7.0380   -1.8348    0.0000 N   0  0  0  0  0  0  0  0  0  0  0  0
    7.7525   -1.4223    0.0000 C   0  0  0  0  0  0  0  0  0  0  0  0
    7.7525   -0.5973    0.0000 O   0  0  0  0  0  0  0  0  0  0  0  0
    8.4669   -1.8348    0.0000 C   0  0  0  0  0  0  0  0  0  0  0  0
    9.1814   -1.4223    0.0000 C   0  0  0  0  0  0  0  0  0  0  0  0
    9.8959   -1.8348    0.0000 C   0  0  0  0  0  0  0  0  0  0  0  0
    9.8959   -2.6598    0.0000 C   0  0  0  0  0  0  0  0  0  0  0  0
   10.6104   -3.0723    0.0000 Cl  0  0  0  0  0  0  0  0  0  0  0  0
    9.1814   -3.0723    0.0000 C   0  0  0  0  0  0  0  0  0  0  0  0
    8.4669   -2.6598    0.0000 C   0  0  0  0  0  0  0  0  0  0  0  0
    5.6091   -1.8348    0.0000 N   0  0  0  0  0  0  0  0  0  0  0  0
    4.8946   -1.4223    0.0000 C   0  0  0  0  0  0  0  0  0  0  0  0
    4.1801   -1.8348    0.0000 N   0  0  0  0  0  0  0  0  0  0  0  0
    4.1801   -2.6598    0.0000 C   0  0  0  0  0  0  0  0  0  0  0  0
    4.8476   -3.1447    0.0000 N   0  0  0  0  0  0  0  0  0  0  0  0
    4.5926   -3.9294    0.0000 C   0  0  0  0  0  0  0  0  0  0  0  0
    3.7676   -3.9294    0.0000 C   0  0  0  0  0  0  0  0  0  0  0  0
    3.2827   -4.5968    0.0000 Br  0  0  0  0  0  0  0  0  0  0  0  0
    3.5127   -3.1447    0.0000 S   0  0  0  0  0  0  0  0  0  0  0  0
    4.8946   -0.5973    0.0000 C   0  0  0  0  0  0  0  0  0  0  0  0
  1  2  1  0  0  0  0
  2  3  1  0  0  0  0
  2  4  1  0  0  0  0
  2  5  1  0  0  0  0
  5  6  2  0  0  0  0
  6  7  1  0  0  0  0
  7  8  1  0  0  0  0
  8  9  1  0  0  0  0
  9 10  2  0  0  0  0
  9 11  1  0  0  0  0
 11 12  2  0  0  0  0
 12 13  1  0  0  0  0
 13 14  2  0  0  0  0
 14 15  1  0  0  0  0
 14 16  1  0  0  0  0
 16 17  2  0  0  0  0
 11 17  1  0  0  0  0
  7 18  2  0  0  0  0
 18 19  1  0  0  0  0
 19 20  1  0  0  0  0
 20 21  1  0  0  0  0
 21 22  2  0  0  0  0
 22 23  1  0  0  0  0
 23 24  2  0  0  0  0
 24 25  1  0  0  0  0
 24 26  1  0  0  0  0
 21 26  1  0  0  0  0
 19 27  2  0  0  0  0
  5 27  1  0  0  0  0
M  END
> <ID>
CPD_2362

$$$$
CPD_2367
  Mrv1822 09091914012D          

 25 27  0  0  0  0            999 V2000
    2.9646   -1.7116    0.0000 C   0  0  0  0  0  0  0  0  0  0  0  0
    2.2501   -1.2991    0.0000 C   0  0  0  0  0  0  0  0  0  0  0  0
    2.2501   -0.4741    0.0000 O   0  0  0  0  0  0  0  0  0  0  0  0
    1.5356   -0.0616    0.0000 C   0  0  0  0  0  0  0  0  0  0  0  0
    0.8212   -0.4741    0.0000 O   0  0  0  0  0  0  0  0  0  0  0  0
    1.5356    0.7634    0.0000 C   0  0  0  0  0  0  0  0  0  0  0  0
    0.8212    1.1759    0.0000 N   0  0  0  0  0  0  0  0  0  0  0  0
    0.8212    2.0009    0.0000 C   0  0  0  0  0  0  0  0  0  0  0  0
    1.5356    2.4134    0.0000 C   0  0  0  0  0  0  0  0  0  0  0  0
    2.2501    2.0009    0.0000 C   0  0  0  0  0  0  0  0  0  0  0  0
    2.2501    1.1759    0.0000 C   0  0  0  0  0  0  0  0  0  0  0  0
    0.1067    2.4134    0.0000 C   0  0  0  0  0  0  0  0  0  0  0  0
   -0.6078    2.0009    0.0000 C   0  0  0  0  0  0  0  0  0  0  0  0
   -1.3222    2.4134    0.0000 C   0  0  0  0  0  0  0  0  0  0  0  0
   -2.0367    2.0009    0.0000 N   0  0  0  0  0  0  0  0  0  0  0  0
   -2.0367    1.1759    0.0000 C   0  0  0  0  0  0  0  0  0  0  0  0
   -1.3693    0.6910    0.0000 N   0  0  0  0  0  0  0  0  0  0  0  0
   -1.6242   -0.0937    0.0000 C   0  0  0  0  0  0  0  0  0  0  0  0
   -2.4492   -0.0937    0.0000 C   0  0  0  0  0  0  0  0  0  0  0  0
   -2.9341   -0.7611    0.0000 Br  0  0  0  0  0  0  0  0  0  0  0  0
   -2.7041    0.6910    0.0000 S   0  0  0  0  0  0  0  0  0  0  0  0
   -1.3222    3.2384    0.0000 C   0  0  0  0  0  0  0  0  0  0  0  0
   -0.6078    3.6509    0.0000 C   0  0  0  0  0  0  0  0  0  0  0  0
    0.1067    3.2384    0.0000 C   0  0  0  0  0  0  0  0  0  0  0  0
    0.8212    3.6509    0.0000 C   0  0  0  0  0  0  0  0  0  0  0  0
  1  2  1  0  0  0  0
  2  3  1  0  0  0  0
  3  4  1  0  0  0  0
  4  5  2  0  0  0  0
  4  6  1  0  0  0  0
  6  7  2  0  0  0  0
  7  8  1  0  0  0  0
  8  9  2  0  0  0  0
  9 10  1  0  0  0  0
 10 11  2  0  0  0  0
  6 11  1  0  0  0  0
  8 12  1  0  0  0  0
 12 13  2  0  0  0  0
 13 14  1  0  0  0  0
 14 15  1  0  0  0  0
 15 16  1  0  0  0  0
 16 17  2  0  0  0  0
 17 18  1  0  0  0  0
 18 19  2  0  0  0  0
 19 20  1  0  0  0  0
 19 21  1  0  0  0  0
 16 21  1  0  0  0  0
 14 22  2  0  0  0  0
 22 23  1  0  0  0  0
 23 24  2  0  0  0  0
 12 24  1  0  0  0  0
 24 25  1  0  0  0  0
M  END
> <ID>
CPD_2367

$$$$
CPD_2372
  Mrv1822 09091914012D          

 18 19  0  0  0  0            999 V2000
    1.4289    0.0000    0.0000 C   0  0  0  0  0  0  0  0  0  0  0  0
    2.1434   -0.4125    0.0000 O   0  0  0  0  0  0  0  0  0  0  0  0
    2.1434   -1.2375    0.0000 C   0  0  0  0  0  0  0  0  0  0  0  0
    2.8579   -1.6500    0.0000 C   0  0  0  0  0  0  0  0  0  0  0  0
    3.5724   -1.2375    0.0000 N   0  0  0  0  0  0  0  0  0  0  0  0
    4.2868   -1.6500    0.0000 C   0  0  0  0  0  0  0  0  0  0  0  0
    5.0013   -1.2375    0.0000 C   0  0  0  0  0  0  0  0  0  0  0  0
    5.7158   -1.6500    0.0000 C   0  0  0  0  0  0  0  0  0  0  0  0
    5.7158   -2.4750    0.0000 C   0  0  0  0  0  0  0  0  0  0  0  0
    6.4302   -2.8875    0.0000 C   0  0  0  0  0  0  0  0  0  0  0  0
    5.0013   -2.8875    0.0000 C   0  0  0  0  0  0  0  0  0  0  0  0
    5.0013   -3.7125    0.0000 C   0  0  0  0  0  0  0  0  0  0  0  0
    4.2868   -2.4750    0.0000 C   0  0  0  0  0  0  0  0  0  0  0  0
    2.8579   -2.4750    0.0000 C   0  0  0  0  0  0  0  0  0  0  0  0
    3.5724   -2.8875    0.0000 Cl  0  0  0  0  0  0  0  0  0  0  0  0
    2.1434   -2.8875    0.0000 C   0  0  0  0  0  0  0  0  0  0  0  0
    1.4289   -2.4750    0.0000 C   0  0  0  0  0  0  0  0  0  0  0  0
    1.4289   -1.6500    0.0000 C   0  0  0  0  0  0  0  0  0  0  0  0
  1  2  1  0  0  0  0
  2  3  1  0  0  0  0
  3  4  2  0  0  0  0
  4  5  1  0  0  0  0
  5  6  1  0  0  0  0
  6  7  2  0  0  0  0
  7  8  1  0  0  0  0
  8  9  2  0  0  0  0
  9 10  1  0  0  0  0
  9 11  1  0  0  0  0
 11 12  1  0  0  0  0
 11 13  2  0  0  0  0
  6 13  1  0  0  0  0
  4 14  1  0  0  0  0
 14 15  1  0  0  0  0
 14 16  2  0  0  0  0
 16 17  1  0  0  0  0
 17 18  2  0  0  0  0
  3 18  1  0  0  0  0
M  END
> <ID>
CPD_2372

$$$$
CPD_2377
  Mrv1822 09091914012D          

 23 25  0  0  0  0            999 V2000
   -1.4289   -2.4750    0.0000 C   0  0  0  0  0  0  0  0  0  0  0  0
   -0.7145   -2.8875    0.0000 O   0  0  0  0  0  0  0  0  0  0  0  0
   -0.7145   -3.7125    0.0000 C   0  0  0  0  0  0  0  0  0  0  0  0
    0.0000   -4.1250    0.0000 C   0  0  0  0  0  0  0  0  0  0  0  0
    0.7145   -3.7125    0.0000 N   0  0  0  0  0  0  0  0  0  0  0  0
    1.4289   -4.1250    0.0000 C   0  0  0  0  0  0  0  0  0  0  0  0
    2.1434   -3.7125    0.0000 C   0  0  0  0  0  0  0  0  0  0  0  0
    2.8579   -4.1250    0.0000 C   0  0  0  0  0  0  0  0  0  0  0  0
    2.8579   -4.9500    0.0000 C   0  0  0  0  0  0  0  0  0  0  0  0
    2.1434   -5.3625    0.0000 C   0  0  0  0  0  0  0  0  0  0  0  0
    2.1434   -6.1875    0.0000 O   0  0  0  0  0  0  0  0  0  0  0  0
    1.4289   -4.9500    0.0000 C   0  0  0  0  0  0  0  0  0  0  0  0
    3.5724   -3.7125    0.0000 C   0  0  0  0  0  0  0  0  0  0  0  0
    3.5724   -2.8875    0.0000 C   0  0  0  0  0  0  0  0  0  0  0  0
    4.2868   -2.4750    0.0000 C   0  0  0  0  0  0  0  0  0  0  0  0
    5.0013   -2.8875    0.0000 C   0  0  0  0  0  0  0  0  0  0  0  0
    5.0013   -3.7125    0.0000 C   0  0  0  0  0  0  0  0  0  0  0  0
    4.2868   -4.1250    0.0000 C   0  0  0  0  0  0  0  0  0  0  0  0
    0.0000   -4.9500    0.0000 C   0  0  0  0  0  0  0  0  0  0  0  0
    0.7145   -5.3625    0.0000 Cl  0  0  0  0  0  0  0  0  0  0  0  0
   -0.7145   -5.3625    0.0000 C   0  0  0  0  0  0  0  0  0  0  0  0
   -1.4289   -4.9500    0.0000 C   0  0  0  0  0  0  0  0  0  0  0  0
   -1.4289   -4.1250    0.0000 C   0  0  0  0  0  0  0  0  0  0  0  0
  1  2  1  0  0  0  0
  2  3  1  0  0  0  0
  3  4  2  0  0  0  0
  4  5  1  0  0  0  0
  5  6  1  0  0  0  0
  6  7  2  0  0  0  0
  7  8  1  0  0  0  0
  8  9  2  0  0  0  0
  9 10  1  0  0  0  0
 10 11  1  0  0  0  0
 10 12  2  0  0  0  0
  6 12  1  0  0  0  0
  8 13  1  0  0  0  0
 13 14  2  0  0  0  0
 14 15  1  0  0  0  0
 15 16  2  0  0  0  0
 16 17  1  0  0  0  0
 17 18  2  0  0  0  0
 13 18  1  0  0  0  0
  4 19  1  0  0  0  0
 19 20  1  0  0  0  0
 19 21  2  0  0  0  0
 21 22  1  0  0  0  0
 22 23  2  0  0  0  0
  3 23  1  0  0  0  0
M  END
> <ID>
CPD_2377

$$$$
CPD_2382
  Mrv1822 09091914012D          

 19 21  0  0  0  0            999 V2000
   -2.3294   -2.6412    0.0000 C   0  0  0  0  0  0  0  0  0  0  0  0
   -1.5757   -2.3056    0.0000 N   0  0  0  0  0  0  0  0  0  0  0  0
   -1.4042   -1.4986    0.0000 C   0  0  0  0  0  0  0  0  0  0  0  0
   -0.5837   -1.4124    0.0000 C   0  0  0  0  0  0  0  0  0  0  0  0
   -0.1712   -0.6979    0.0000 N   0  0  0  0  0  0  0  0  0  0  0  0
    0.6538   -0.6979    0.0000 C   0  0  0  0  0  0  0  0  0  0  0  0
    1.1387   -0.0305    0.0000 N   0  0  0  0  0  0  0  0  0  0  0  0
    1.9233   -0.2854    0.0000 N   0  0  0  0  0  0  0  0  0  0  0  0
    2.6378    0.1271    0.0000 C   0  0  0  0  0  0  0  0  0  0  0  0
    3.3523   -0.2854    0.0000 C   0  0  0  0  0  0  0  0  0  0  0  0
    4.0668    0.1271    0.0000 C   0  0  0  0  0  0  0  0  0  0  0  0
    3.3523   -1.1104    0.0000 C   0  0  0  0  0  0  0  0  0  0  0  0
    2.6378   -1.5229    0.0000 C   0  0  0  0  0  0  0  0  0  0  0  0
    2.6378   -2.3479    0.0000 Cl  0  0  0  0  0  0  0  0  0  0  0  0
    1.9233   -1.1104    0.0000 C   0  0  0  0  0  0  0  0  0  0  0  0
    1.1387   -1.3654    0.0000 N   0  0  0  0  0  0  0  0  0  0  0  0
   -0.2481   -2.1661    0.0000 C   0  0  0  0  0  0  0  0  0  0  0  0
    0.5588   -2.3376    0.0000 C   0  0  0  0  0  0  0  0  0  0  0  0
   -0.8612   -2.7181    0.0000 N   0  0  0  0  0  0  0  0  0  0  0  0
  1  2  1  0  0  0  0
  2  3  1  0  0  0  0
  3  4  2  0  0  0  0
  4  5  1  0  0  0  0
  5  6  1  0  0  0  0
  6  7  2  0  0  0  0
  7  8  1  0  0  0  0
  8  9  1  0  0  0  0
  9 10  2  0  0  0  0
 10 11  1  0  0  0  0
 10 12  1  0  0  0  0
 12 13  2  0  0  0  0
 13 14  1  0  0  0  0
 13 15  1  0  0  0  0
  8 15  1  0  0  0  0
 15 16  2  0  0  0  0
  6 16  1  0  0  0  0
  4 17  1  0  0  0  0
 17 18  1  0  0  0  0
 17 19  2  0  0  0  0
  2 19  1  0  0  0  0
M  END
> <ID>
CPD_2382

$$$$
CPD_2387
  Mrv1822 09091914012D          

 30 33  0  0  0  0            999 V2000
    1.0663   -4.2703    0.0000 C   0  0  0  0  0  0  0  0  0  0  0  0
    0.6538   -3.5558    0.0000 O   0  0  0  0  0  0  0  0  0  0  0  0
   -0.1712   -3.5558    0.0000 C   0  0  0  0  0  0  0  0  0  0  0  0
   -0.5837   -4.2703    0.0000 O   0  0  0  0  0  0  0  0  0  0  0  0
   -0.5837   -2.8414    0.0000 C   0  0  0  0  0  0  0  0  0  0  0  0
   -1.4087   -2.8414    0.0000 C   0  0  0  0  0  0  0  0  0  0  0  0
   -1.8212   -2.1269    0.0000 C   0  0  0  0  0  0  0  0  0  0  0  0
   -1.4087   -1.4124    0.0000 C   0  0  0  0  0  0  0  0  0  0  0  0
   -0.5837   -1.4124    0.0000 C   0  0  0  0  0  0  0  0  0  0  0  0
   -0.1712   -0.6979    0.0000 N   0  0  0  0  0  0  0  0  0  0  0  0
    0.6538   -0.6979    0.0000 C   0  0  0  0  0  0  0  0  0  0  0  0
    1.1387   -0.0305    0.0000 N   0  0  0  0  0  0  0  0  0  0  0  0
    1.9233   -0.2854    0.0000 N   0  0  0  0  0  0  0  0  0  0  0  0
    2.6378    0.1271    0.0000 C   0  0  0  0  0  0  0  0  0  0  0  0
    3.3523   -0.2854    0.0000 C   0  0  0  0  0  0  0  0  0  0  0  0
    4.0668    0.1271    0.0000 C   0  0  0  0  0  0  0  0  0  0  0  0
    3.3523   -1.1104    0.0000 C   0  0  0  0  0  0  0  0  0  0  0  0
    2.6378   -1.5229    0.0000 C   0  0  0  0  0  0  0  0  0  0  0  0
    2.6378   -2.3479    0.0000 Cl  0  0  0  0  0  0  0  0  0  0  0  0
    1.9233   -1.1104    0.0000 C   0  0  0  0  0  0  0  0  0  0  0  0
    1.1387   -1.3654    0.0000 N   0  0  0  0  0  0  0  0  0  0  0  0
   -0.1712   -2.1269    0.0000 C   0  0  0  0  0  0  0  0  0  0  0  0
   -2.6462   -2.1269    0.0000 C   0  0  0  0  0  0  0  0  0  0  0  0
   -3.0587   -2.8414    0.0000 C   0  0  0  0  0  0  0  0  0  0  0  0
   -3.8837   -2.8414    0.0000 N   0  0  0  0  0  0  0  0  0  0  0  0
   -4.2962   -2.1269    0.0000 C   0  0  0  0  0  0  0  0  0  0  0  0
   -3.8837   -1.4124    0.0000 C   0  0  0  0  0  0  0  0  0  0  0  0
   -4.2962   -0.6979    0.0000 O   0  0  0  0  0  0  0  0  0  0  0  0
   -5.1212   -0.6979    0.0000 C   0  0  0  0  0  0  0  0  0  0  0  0
   -3.0587   -1.4124    0.0000 C   0  0  0  0  0  0  0  0  0  0  0  0
  1  2  1  0  0  0  0
  2  3  1  0  0  0  0
  3  4  2  0  0  0  0
  3  5  1  0  0  0  0
  5  6  2  0  0  0  0
  6  7  1  0  0  0  0
  7  8  2  0  0  0  0
  8  9  1  0  0  0  0
  9 10  1  0  0  0  0
 10 11  1  0  0  0  0
 11 12  2  0  0  0  0
 12 13  1  0  0  0  0
 13 14  1  0  0  0  0
 14 15  2  0  0  0  0
 15 16  1  0  0  0  0
 15 17  1  0  0  0  0
 17 18  2  0  0  0  0
 18 19  1  0  0  0  0
 18 20  1  0  0  0  0
 13 20  1  0  0  0  0
 20 21  2  0  0  0  0
 11 21  1  0  0  0  0
  9 22  2  0  0  0  0
  5 22  1  0  0  0  0
  7 23  1  0  0  0  0
 23 24  2  0  0  0  0
 24 25  1  0  0  0  0
 25 26  2  0  0  0  0
 26 27  1  0  0  0  0
 27 28  1  0  0  0  0
 28 29  1  0  0  0  0
 27 30  2  0  0  0  0
 23 30  1  0  0  0  0
M  END
> <ID>
CPD_2387

$$$$
CPD_2392
  Mrv1822 09091914012D          

 28 31  0  0  0  0            999 V2000
    2.7845    0.6979    0.0000 C   0  0  0  0  0  0  0  0  0  0  0  0
    2.0701    1.1104    0.0000 C   0  0  0  0  0  0  0  0  0  0  0  0
    1.3556    0.6979    0.0000 C   0  0  0  0  0  0  0  0  0  0  0  0
    0.6411    1.1104    0.0000 N   0  0  0  0  0  0  0  0  0  0  0  0
   -0.1435    0.8555    0.0000 N   0  0  0  0  0  0  0  0  0  0  0  0
   -0.6284    1.5229    0.0000 C   0  0  0  0  0  0  0  0  0  0  0  0
   -1.4534    1.5229    0.0000 N   0  0  0  0  0  0  0  0  0  0  0  0
   -1.8659    2.2374    0.0000 C   0  0  0  0  0  0  0  0  0  0  0  0
   -2.6909    2.2374    0.0000 C   0  0  0  0  0  0  0  0  0  0  0  0
   -3.1034    2.9519    0.0000 C   0  0  0  0  0  0  0  0  0  0  0  0
   -2.6909    3.6664    0.0000 C   0  0  0  0  0  0  0  0  0  0  0  0
   -1.8659    3.6664    0.0000 C   0  0  0  0  0  0  0  0  0  0  0  0
   -1.4534    2.9519    0.0000 C   0  0  0  0  0  0  0  0  0  0  0  0
   -3.1034    4.3808    0.0000 C   0  0  0  0  0  0  0  0  0  0  0  0
   -3.9284    4.3808    0.0000 C   0  0  0  0  0  0  0  0  0  0  0  0
   -4.3409    5.0953    0.0000 C   0  0  0  0  0  0  0  0  0  0  0  0
   -3.9284    5.8098    0.0000 C   0  0  0  0  0  0  0  0  0  0  0  0
   -3.1034    5.8098    0.0000 C   0  0  0  0  0  0  0  0  0  0  0  0
   -2.6909    6.5242    0.0000 C   0  0  0  0  0  0  0  0  0  0  0  0
   -3.1034    7.2387    0.0000 O   0  0  0  0  0  0  0  0  0  0  0  0
   -1.8659    6.5242    0.0000 O   0  0  0  0  0  0  0  0  0  0  0  0
   -2.6909    5.0953    0.0000 C   0  0  0  0  0  0  0  0  0  0  0  0
   -1.8659    5.0953    0.0000 C   0  0  0  0  0  0  0  0  0  0  0  0
   -0.1435    2.1904    0.0000 N   0  0  0  0  0  0  0  0  0  0  0  0
    0.6411    1.9354    0.0000 C   0  0  0  0  0  0  0  0  0  0  0  0
    1.3556    2.3479    0.0000 C   0  0  0  0  0  0  0  0  0  0  0  0
    1.3556    3.1729    0.0000 Cl  0  0  0  0  0  0  0  0  0  0  0  0
    2.0701    1.9354    0.0000 C   0  0  0  0  0  0  0  0  0  0  0  0
  1  2  1  0  0  0  0
  2  3  2  0  0  0  0
  3  4  1  0  0  0  0
  4  5  1  0  0  0  0
  5  6  2  0  0  0  0
  6  7  1  0  0  0  0
  7  8  1  0  0  0  0
  8  9  2  0  0  0  0
  9 10  1  0  0  0  0
 10 11  2  0  0  0  0
 11 12  1  0  0  0  0
 12 13  2  0  0  0  0
  8 13  1  0  0  0  0
 11 14  1  0  0  0  0
 14 15  2  0  0  0  0
 15 16  1  0  0  0  0
 16 17  2  0  0  0  0
 17 18  1  0  0  0  0
 18 19  1  0  0  0  0
 19 20  1  0  0  0  0
 19 21  2  0  0  0  0
 18 22  2  0  0  0  0
 14 22  1  0  0  0  0
 22 23  1  0  0  0  0
  6 24  1  0  0  0  0
 24 25  2  0  0  0  0
  4 25  1  0  0  0  0
 25 26  1  0  0  0  0
 26 27  1  0  0  0  0
 26 28  2  0  0  0  0
  2 28  1  0  0  0  0
M  END
> <ID>
CPD_2392

$$$$
CPD_2397
  Mrv1822 09091914012D          

 30 34  0  0  0  0            999 V2000
    5.1979   -5.7031    0.0000 C   0  0  0  0  0  0  0  0  0  0  0  0
    4.4834   -5.2906    0.0000 C   0  0  0  0  0  0  0  0  0  0  0  0
    3.7690   -5.7031    0.0000 C   0  0  0  0  0  0  0  0  0  0  0  0
    3.0545   -5.2906    0.0000 N   0  0  0  0  0  0  0  0  0  0  0  0
    2.2699   -5.5455    0.0000 N   0  0  0  0  0  0  0  0  0  0  0  0
    1.7850   -4.8781    0.0000 C   0  0  0  0  0  0  0  0  0  0  0  0
    0.9600   -4.8781    0.0000 N   0  0  0  0  0  0  0  0  0  0  0  0
    0.5475   -4.1636    0.0000 C   0  0  0  0  0  0  0  0  0  0  0  0
   -0.2775   -4.1636    0.0000 N   0  0  0  0  0  0  0  0  0  0  0  0
   -0.6900   -3.4491    0.0000 N   0  0  0  0  0  0  0  0  0  0  0  0
   -0.2775   -2.7346    0.0000 C   0  0  0  0  0  0  0  0  0  0  0  0
   -0.6900   -2.0202    0.0000 C   0  0  0  0  0  0  0  0  0  0  0  0
   -0.2775   -1.3057    0.0000 N   0  0  0  0  0  0  0  0  0  0  0  0
    0.5429   -1.2195    0.0000 C   0  0  0  0  0  0  0  0  0  0  0  0
    1.0950   -1.8326    0.0000 O   0  0  0  0  0  0  0  0  0  0  0  0
    0.7145   -0.4125    0.0000 C   0  0  0  0  0  0  0  0  0  0  0  0
    0.0000    0.0000    0.0000 C   0  0  0  0  0  0  0  0  0  0  0  0
    0.0000    0.8250    0.0000 C   0  0  0  0  0  0  0  0  0  0  0  0
    0.7145    1.2375    0.0000 C   0  0  0  0  0  0  0  0  0  0  0  0
    1.4289    0.8250    0.0000 C   0  0  0  0  0  0  0  0  0  0  0  0
    1.4289    0.0000    0.0000 C   0  0  0  0  0  0  0  0  0  0  0  0
   -0.6131   -0.5520    0.0000 C   0  0  0  0  0  0  0  0  0  0  0  0
   -1.4201   -0.3805    0.0000 O   0  0  0  0  0  0  0  0  0  0  0  0
    0.5475   -2.7346    0.0000 C   0  0  0  0  0  0  0  0  0  0  0  0
    0.9600   -3.4491    0.0000 C   0  0  0  0  0  0  0  0  0  0  0  0
    2.2699   -4.2106    0.0000 N   0  0  0  0  0  0  0  0  0  0  0  0
    3.0545   -4.4656    0.0000 C   0  0  0  0  0  0  0  0  0  0  0  0
    3.7690   -4.0531    0.0000 C   0  0  0  0  0  0  0  0  0  0  0  0
    3.7690   -3.2281    0.0000 Cl  0  0  0  0  0  0  0  0  0  0  0  0
    4.4834   -4.4656    0.0000 C   0  0  0  0  0  0  0  0  0  0  0  0
  1  2  1  0  0  0  0
  2  3  2  0  0  0  0
  3  4  1  0  0  0  0
  4  5  1  0  0  0  0
  5  6  2  0  0  0  0
  6  7  1  0  0  0  0
  7  8  1  0  0  0  0
  8  9  2  0  0  0  0
  9 10  1  0  0  0  0
 10 11  2  0  0  0  0
 11 12  1  0  0  0  0
 12 13  1  0  0  0  0
 13 14  1  0  0  0  0
 14 15  2  0  0  0  0
 14 16  1  0  0  0  0
 16 17  2  0  0  0  0
 17 18  1  0  0  0  0
 18 19  2  0  0  0  0
 19 20  1  0  0  0  0
 20 21  2  0  0  0  0
 16 21  1  0  0  0  0
 17 22  1  0  0  0  0
 13 22  1  0  0  0  0
 22 23  2  0  0  0  0
 11 24  1  0  0  0  0
 24 25  2  0  0  0  0
  8 25  1  0  0  0  0
  6 26  1  0  0  0  0
 26 27  2  0  0  0  0
  4 27  1  0  0  0  0
 27 28  1  0  0  0  0
 28 29  1  0  0  0  0
 28 30  2  0  0  0  0
  2 30  1  0  0  0  0
M  END
> <ID>
CPD_2397

$$$$
CPD_2402
  Mrv1822 09091914012D          

 35 39  0  0  0  0            999 V2000
    0.8838   -2.1500    0.0000 C   0  0  0  0  0  0  0  0  0  0  0  0
    1.1387   -1.3654    0.0000 N   0  0  0  0  0  0  0  0  0  0  0  0
    0.6538   -0.6979    0.0000 C   0  0  0  0  0  0  0  0  0  0  0  0
    1.1387   -0.0305    0.0000 N   0  0  0  0  0  0  0  0  0  0  0  0
    1.9233   -0.2854    0.0000 C   0  0  0  0  0  0  0  0  0  0  0  0
    2.6378    0.1271    0.0000 C   0  0  0  0  0  0  0  0  0  0  0  0
    3.3523   -0.2854    0.0000 C   0  0  0  0  0  0  0  0  0  0  0  0
    3.3523   -1.1104    0.0000 C   0  0  0  0  0  0  0  0  0  0  0  0
    4.0668   -1.5229    0.0000 N   0  0  0  0  0  0  0  0  0  0  0  0
    4.7812   -1.1104    0.0000 C   0  0  0  0  0  0  0  0  0  0  0  0
    4.7812   -0.2854    0.0000 C   0  0  0  0  0  0  0  0  0  0  0  0
    5.4957    0.1271    0.0000 C   0  0  0  0  0  0  0  0  0  0  0  0
    6.2102   -0.2854    0.0000 C   0  0  0  0  0  0  0  0  0  0  0  0
    6.2102   -1.1104    0.0000 C   0  0  0  0  0  0  0  0  0  0  0  0
    5.4957   -1.5229    0.0000 C   0  0  0  0  0  0  0  0  0  0  0  0
    5.4957   -2.3479    0.0000 N   0  0  0  0  0  0  0  0  0  0  0  0
    6.1631   -2.8329    0.0000 C   0  0  0  0  0  0  0  0  0  0  0  0
    5.9082   -3.6175    0.0000 C   0  0  0  0  0  0  0  0  0  0  0  0
    5.0832   -3.6175    0.0000 C   0  0  0  0  0  0  0  0  0  0  0  0
    4.8283   -2.8329    0.0000 C   0  0  0  0  0  0  0  0  0  0  0  0
    4.0436   -2.5779    0.0000 O   0  0  0  0  0  0  0  0  0  0  0  0
    6.9246    0.1271    0.0000 N   0  0  0  0  0  0  0  0  0  0  0  0
    7.0109    0.9475    0.0000 C   0  0  0  0  0  0  0  0  0  0  0  0
    7.8178    1.1191    0.0000 C   0  0  0  0  0  0  0  0  0  0  0  0
    8.2303    0.4046    0.0000 C   0  0  0  0  0  0  0  0  0  0  0  0
    7.6783   -0.2085    0.0000 C   0  0  0  0  0  0  0  0  0  0  0  0
    7.8498   -1.0155    0.0000 O   0  0  0  0  0  0  0  0  0  0  0  0
    2.6378   -1.5229    0.0000 C   0  0  0  0  0  0  0  0  0  0  0  0
    1.9233   -1.1104    0.0000 C   0  0  0  0  0  0  0  0  0  0  0  0
   -0.1712   -0.6979    0.0000 C   0  0  0  0  0  0  0  0  0  0  0  0
   -0.5837    0.0165    0.0000 O   0  0  0  0  0  0  0  0  0  0  0  0
   -0.5837   -1.4124    0.0000 C   0  0  0  0  0  0  0  0  0  0  0  0
   -1.4087   -1.4124    0.0000 C   0  0  0  0  0  0  0  0  0  0  0  0
   -1.8212   -2.1269    0.0000 O   0  0  0  0  0  0  0  0  0  0  0  0
   -1.8212   -0.6979    0.0000 O   0  0  0  0  0  0  0  0  0  0  0  0
  1  2  1  0  0  0  0
  2  3  1  0  0  0  0
  3  4  2  0  0  0  0
  4  5  1  0  0  0  0
  5  6  2  0  0  0  0
  6  7  1  0  0  0  0
  7  8  2  0  0  0  0
  8  9  1  0  0  0  0
  9 10  1  0  0  0  0
 10 11  2  0  0  0  0
 11 12  1  0  0  0  0
 12 13  2  0  0  0  0
 13 14  1  0  0  0  0
 14 15  2  0  0  0  0
 10 15  1  0  0  0  0
 15 16  1  0  0  0  0
 16 17  1  0  0  0  0
 17 18  1  0  0  0  0
 18 19  1  0  0  0  0
 19 20  1  0  0  0  0
 16 20  1  0  0  0  0
 20 21  2  0  0  0  0
 13 22  1  0  0  0  0
 22 23  1  0  0  0  0
 23 24  1  0  0  0  0
 24 25  1  0  0  0  0
 25 26  1  0  0  0  0
 22 26  1  0  0  0  0
 26 27  2  0  0  0  0
  8 28  1  0  0  0  0
 28 29  2  0  0  0  0
  2 29  1  0  0  0  0
  5 29  1  0  0  0  0
  3 30  1  0  0  0  0
 30 31  1  0  0  0  0
 30 32  1  0  0  0  0
 32 33  1  0  0  0  0
 33 34  1  0  0  0  0
 33 35  2  0  0  0  0
M  END
> <ID>
CPD_2402

$$$$
CPD_2407
  Mrv1822 09091914012D          

 30 34  0  0  0  0            999 V2000
    2.7845    0.6979    0.0000 C   0  0  0  0  0  0  0  0  0  0  0  0
    2.0701    1.1104    0.0000 C   0  0  0  0  0  0  0  0  0  0  0  0
    1.3556    0.6979    0.0000 C   0  0  0  0  0  0  0  0  0  0  0  0
    0.6411    1.1104    0.0000 C   0  0  0  0  0  0  0  0  0  0  0  0
    0.6411    1.9354    0.0000 C   0  0  0  0  0  0  0  0  0  0  0  0
    1.3556    2.3479    0.0000 C   0  0  0  0  0  0  0  0  0  0  0  0
    2.0701    1.9354    0.0000 C   0  0  0  0  0  0  0  0  0  0  0  0
    2.7845    2.3479    0.0000 N   0  0  0  0  0  0  0  0  0  0  0  0
    3.4990    1.9354    0.0000 C   0  0  0  0  0  0  0  0  0  0  0  0
    3.4990    1.1104    0.0000 C   0  0  0  0  0  0  0  0  0  0  0  0
    4.2135    0.6979    0.0000 C   0  0  0  0  0  0  0  0  0  0  0  0
    4.9279    1.1104    0.0000 C   0  0  0  0  0  0  0  0  0  0  0  0
    4.9279    1.9354    0.0000 C   0  0  0  0  0  0  0  0  0  0  0  0
    4.2135    2.3479    0.0000 C   0  0  0  0  0  0  0  0  0  0  0  0
    4.2135    3.1729    0.0000 N   0  0  0  0  0  0  0  0  0  0  0  0
    3.5460    3.6579    0.0000 C   0  0  0  0  0  0  0  0  0  0  0  0
    3.8010    4.4425    0.0000 C   0  0  0  0  0  0  0  0  0  0  0  0
    4.6260    4.4425    0.0000 C   0  0  0  0  0  0  0  0  0  0  0  0
    4.8809    3.6579    0.0000 C   0  0  0  0  0  0  0  0  0  0  0  0
    5.6655    3.4029    0.0000 O   0  0  0  0  0  0  0  0  0  0  0  0
    5.6424    0.6979    0.0000 N   0  0  0  0  0  0  0  0  0  0  0  0
    6.3961    1.0335    0.0000 C   0  0  0  0  0  0  0  0  0  0  0  0
    6.9481    0.4204    0.0000 C   0  0  0  0  0  0  0  0  0  0  0  0
    6.5356   -0.2941    0.0000 C   0  0  0  0  0  0  0  0  0  0  0  0
    5.7286   -0.1225    0.0000 C   0  0  0  0  0  0  0  0  0  0  0  0
    5.1156   -0.6746    0.0000 O   0  0  0  0  0  0  0  0  0  0  0  0
   -0.1435    2.1904    0.0000 C   0  0  0  0  0  0  0  0  0  0  0  0
   -0.3984    2.9750    0.0000 Cl  0  0  0  0  0  0  0  0  0  0  0  0
   -0.6284    1.5229    0.0000 N   0  0  0  0  0  0  0  0  0  0  0  0
   -0.1435    0.8555    0.0000 N   0  0  0  0  0  0  0  0  0  0  0  0
  1  2  1  0  0  0  0
  2  3  2  0  0  0  0
  3  4  1  0  0  0  0
  4  5  2  0  0  0  0
  5  6  1  0  0  0  0
  6  7  2  0  0  0  0
  2  7  1  0  0  0  0
  7  8  1  0  0  0  0
  8  9  1  0  0  0  0
  9 10  2  0  0  0  0
 10 11  1  0  0  0  0
 11 12  2  0  0  0  0
 12 13  1  0  0  0  0
 13 14  2  0  0  0  0
  9 14  1  0  0  0  0
 14 15  1  0  0  0  0
 15 16  1  0  0  0  0
 16 17  1  0  0  0  0
 17 18  1  0  0  0  0
 18 19  1  0  0  0  0
 15 19  1  0  0  0  0
 19 20  2  0  0  0  0
 12 21  1  0  0  0  0
 21 22  1  0  0  0  0
 22 23  1  0  0  0  0
 23 24  1  0  0  0  0
 24 25  1  0  0  0  0
 21 25  1  0  0  0  0
 25 26  2  0  0  0  0
  5 27  1  0  0  0  0
 27 28  1  0  0  0  0
 27 29  2  0  0  0  0
 29 30  1  0  0  0  0
  4 30  1  0  0  0  0
M  END
> <ID>
CPD_2407

$$$$
CPD_2412
  Mrv1822 09091914012D          

 34 37  0  0  0  0            999 V2000
    0.0768   -2.3215    0.0000 C   0  0  0  0  0  0  0  0  0  0  0  0
    0.8838   -2.1500    0.0000 C   0  0  0  0  0  0  0  0  0  0  0  0
    1.1387   -1.3654    0.0000 C   0  0  0  0  0  0  0  0  0  0  0  0
    0.6538   -0.6979    0.0000 N   0  0  0  0  0  0  0  0  0  0  0  0
    1.1387   -0.0305    0.0000 N   0  0  0  0  0  0  0  0  0  0  0  0
    1.9233   -0.2854    0.0000 C   0  0  0  0  0  0  0  0  0  0  0  0
    2.6378    0.1271    0.0000 C   0  0  0  0  0  0  0  0  0  0  0  0
    3.3523   -0.2854    0.0000 C   0  0  0  0  0  0  0  0  0  0  0  0
    3.3523   -1.1104    0.0000 C   0  0  0  0  0  0  0  0  0  0  0  0
    2.6378   -1.5229    0.0000 C   0  0  0  0  0  0  0  0  0  0  0  0
    1.9233   -1.1104    0.0000 N   0  0  0  0  0  0  0  0  0  0  0  0
    4.0668   -1.5229    0.0000 S   0  0  0  0  0  0  0  0  0  0  0  0
    3.6543   -2.2374    0.0000 O   0  0  0  0  0  0  0  0  0  0  0  0
    4.4793   -0.8085    0.0000 O   0  0  0  0  0  0  0  0  0  0  0  0
    4.7812   -1.9354    0.0000 N   0  0  0  0  0  0  0  0  0  0  0  0
    4.7812   -2.7604    0.0000 C   0  0  0  0  0  0  0  0  0  0  0  0
    5.4957   -3.1729    0.0000 C   0  0  0  0  0  0  0  0  0  0  0  0
    5.4957   -3.9979    0.0000 C   0  0  0  0  0  0  0  0  0  0  0  0
    6.2102   -4.4104    0.0000 N   0  0  0  0  0  0  0  0  0  0  0  0
    6.9246   -3.9979    0.0000 C   0  0  0  0  0  0  0  0  0  0  0  0
    6.9246   -3.1729    0.0000 C   0  0  0  0  0  0  0  0  0  0  0  0
    7.6391   -2.7604    0.0000 C   0  0  0  0  0  0  0  0  0  0  0  0
    8.3536   -3.1729    0.0000 C   0  0  0  0  0  0  0  0  0  0  0  0
    8.3536   -3.9979    0.0000 C   0  0  0  0  0  0  0  0  0  0  0  0
    7.6391   -4.4104    0.0000 C   0  0  0  0  0  0  0  0  0  0  0  0
    9.0681   -4.4104    0.0000 C   0  0  0  0  0  0  0  0  0  0  0  0
    8.6556   -5.1249    0.0000 C   0  0  0  0  0  0  0  0  0  0  0  0
    9.4806   -3.6960    0.0000 C   0  0  0  0  0  0  0  0  0  0  0  0
    9.7825   -4.8229    0.0000 C   0  0  0  0  0  0  0  0  0  0  0  0
   10.4970   -5.2354    0.0000 N   0  0  0  0  0  0  0  0  0  0  0  0
    4.7812   -4.4104    0.0000 C   0  0  0  0  0  0  0  0  0  0  0  0
    4.0668   -3.9979    0.0000 C   0  0  0  0  0  0  0  0  0  0  0  0
    3.3523   -4.4104    0.0000 F   0  0  0  0  0  0  0  0  0  0  0  0
    4.0668   -3.1729    0.0000 C   0  0  0  0  0  0  0  0  0  0  0  0
  1  2  1  0  0  0  0
  2  3  1  0  0  0  0
  3  4  2  0  0  0  0
  4  5  1  0  0  0  0
  5  6  2  0  0  0  0
  6  7  1  0  0  0  0
  7  8  2  0  0  0  0
  8  9  1  0  0  0  0
  9 10  2  0  0  0  0
 10 11  1  0  0  0  0
  3 11  1  0  0  0  0
  6 11  1  0  0  0  0
  9 12  1  0  0  0  0
 12 13  2  0  0  0  0
 12 14  2  0  0  0  0
 12 15  1  0  0  0  0
 15 16  1  0  0  0  0
 16 17  2  0  0  0  0
 17 18  1  0  0  0  0
 18 19  1  0  0  0  0
 19 20  1  0  0  0  0
 20 21  2  0  0  0  0
 21 22  1  0  0  0  0
 22 23  2  0  0  0  0
 23 24  1  0  0  0  0
 24 25  2  0  0  0  0
 20 25  1  0  0  0  0
 24 26  1  0  0  0  0
 26 27  1  0  0  0  0
 26 28  1  0  0  0  0
 26 29  1  0  0  0  0
 29 30  3  0  0  0  0
 18 31  2  0  0  0  0
 31 32  1  0  0  0  0
 32 33  1  0  0  0  0
 32 34  2  0  0  0  0
 16 34  1  0  0  0  0
M  END
> <ID>
CPD_2412

$$$$
CPD_2417
  Mrv1822 09091914012D          

 33 35  0  0  0  0            999 V2000
   -6.0177   -1.1270    0.0000 C   0  0  0  0  0  0  0  0  0  0  0  0
   -6.4302   -0.4125    0.0000 C   0  0  0  0  0  0  0  0  0  0  0  0
   -6.8427    0.3020    0.0000 C   0  0  0  0  0  0  0  0  0  0  0  0
   -7.1447   -0.8250    0.0000 C   0  0  0  0  0  0  0  0  0  0  0  0
   -7.8592   -1.2375    0.0000 N   0  0  0  0  0  0  0  0  0  0  0  0
   -5.7158   -0.0000    0.0000 C   0  0  0  0  0  0  0  0  0  0  0  0
   -5.7158    0.8250    0.0000 C   0  0  0  0  0  0  0  0  0  0  0  0
   -5.0013    1.2375    0.0000 C   0  0  0  0  0  0  0  0  0  0  0  0
   -5.0013    2.0625    0.0000 N   0  0  0  0  0  0  0  0  0  0  0  0
   -4.2868    2.4750    0.0000 C   0  0  0  0  0  0  0  0  0  0  0  0
   -4.2868    3.3000    0.0000 C   0  0  0  0  0  0  0  0  0  0  0  0
   -3.5724    3.7125    0.0000 C   0  0  0  0  0  0  0  0  0  0  0  0
   -2.8579    3.3000    0.0000 C   0  0  0  0  0  0  0  0  0  0  0  0
   -2.1434    3.7125    0.0000 O   0  0  0  0  0  0  0  0  0  0  0  0
   -1.4289    3.3000    0.0000 C   0  0  0  0  0  0  0  0  0  0  0  0
   -0.7145    3.7125    0.0000 C   0  0  0  0  0  0  0  0  0  0  0  0
    0.0000    3.3000    0.0000 C   0  0  0  0  0  0  0  0  0  0  0  0
    0.0000    2.4750    0.0000 C   0  0  0  0  0  0  0  0  0  0  0  0
    0.7145    2.0625    0.0000 N   0  0  0  0  0  0  0  0  0  0  0  0
    1.4289    2.4750    0.0000 C   0  0  0  0  0  0  0  0  0  0  0  0
    1.4289    3.3000    0.0000 O   0  0  0  0  0  0  0  0  0  0  0  0
    2.1434    2.0625    0.0000 C   0  0  0  0  0  0  0  0  0  0  0  0
    2.8579    2.4750    0.0000 C   0  0  0  0  0  0  0  0  0  0  0  0
    3.5724    2.0625    0.0000 C   0  0  0  0  0  0  0  0  0  0  0  0
    4.2868    2.4750    0.0000 O   0  0  0  0  0  0  0  0  0  0  0  0
    3.5724    1.2375    0.0000 O   0  0  0  0  0  0  0  0  0  0  0  0
   -0.7145    2.0625    0.0000 C   0  0  0  0  0  0  0  0  0  0  0  0
   -1.4289    2.4750    0.0000 C   0  0  0  0  0  0  0  0  0  0  0  0
   -2.8579    2.4750    0.0000 C   0  0  0  0  0  0  0  0  0  0  0  0
   -3.5724    2.0625    0.0000 C   0  0  0  0  0  0  0  0  0  0  0  0
   -4.2868    0.8250    0.0000 C   0  0  0  0  0  0  0  0  0  0  0  0
   -4.2868   -0.0000    0.0000 C   0  0  0  0  0  0  0  0  0  0  0  0
   -5.0013   -0.4125    0.0000 C   0  0  0  0  0  0  0  0  0  0  0  0
  1  2  1  0  0  0  0
  2  3  1  0  0  0  0
  2  4  1  0  0  0  0
  4  5  3  0  0  0  0
  2  6  1  0  0  0  0
  6  7  2  0  0  0  0
  7  8  1  0  0  0  0
  8  9  1  0  0  0  0
  9 10  1  0  0  0  0
 10 11  2  0  0  0  0
 11 12  1  0  0  0  0
 12 13  2  0  0  0  0
 13 14  1  0  0  0  0
 14 15  1  0  0  0  0
 15 16  2  0  0  0  0
 16 17  1  0  0  0  0
 17 18  2  0  0  0  0
 18 19  1  0  0  0  0
 19 20  1  0  0  0  0
 20 21  2  0  0  0  0
 20 22  1  0  0  0  0
 22 23  1  0  0  0  0
 23 24  1  0  0  0  0
 24 25  1  0  0  0  0
 24 26  2  0  0  0  0
 18 27  1  0  0  0  0
 27 28  2  0  0  0  0
 15 28  1  0  0  0  0
 13 29  1  0  0  0  0
 29 30  2  0  0  0  0
 10 30  1  0  0  0  0
  8 31  2  0  0  0  0
 31 32  1  0  0  0  0
 32 33  2  0  0  0  0
  6 33  1  0  0  0  0
M  END
> <ID>
CPD_2417

$$$$
CPD_2422
  Mrv1822 09091914012D          

 20 23  0  0  0  0            999 V2000
    1.8500    4.5375    0.0000 O   0  0  0  0  0  0  0  0  0  0  0  0
    1.8500    3.7125    0.0000 C   0  0  0  0  0  0  0  0  0  0  0  0
    2.5645    3.3000    0.0000 C   0  0  0  0  0  0  0  0  0  0  0  0
    3.2789    3.7125    0.0000 C   0  0  0  0  0  0  0  0  0  0  0  0
    3.6914    4.4270    0.0000 C   0  0  0  0  0  0  0  0  0  0  0  0
    4.1039    3.7125    0.0000 C   0  0  0  0  0  0  0  0  0  0  0  0
    2.5645    2.4750    0.0000 C   0  0  0  0  0  0  0  0  0  0  0  0
    3.2789    2.0625    0.0000 N   0  0  0  0  0  0  0  0  0  0  0  0
    3.2789    1.2375    0.0000 C   0  0  0  0  0  0  0  0  0  0  0  0
    3.9934    0.8250    0.0000 C   0  0  0  0  0  0  0  0  0  0  0  0
    3.9934    0.0000    0.0000 C   0  0  0  0  0  0  0  0  0  0  0  0
    3.2789   -0.4125    0.0000 C   0  0  0  0  0  0  0  0  0  0  0  0
    2.5645    0.0000    0.0000 C   0  0  0  0  0  0  0  0  0  0  0  0
    1.7798   -0.2549    0.0000 C   0  0  0  0  0  0  0  0  0  0  0  0
    1.2949    0.4125    0.0000 S   0  0  0  0  0  0  0  0  0  0  0  0
    1.7798    1.0799    0.0000 N   0  0  0  0  0  0  0  0  0  0  0  0
    2.5645    0.8250    0.0000 C   0  0  0  0  0  0  0  0  0  0  0  0
    1.8500    2.0625    0.0000 C   0  0  0  0  0  0  0  0  0  0  0  0
    1.1355    2.4750    0.0000 C   0  0  0  0  0  0  0  0  0  0  0  0
    1.1355    3.3000    0.0000 C   0  0  0  0  0  0  0  0  0  0  0  0
  1  2  1  0  0  0  0
  2  3  2  0  0  0  0
  3  4  1  0  0  0  0
  4  5  1  0  0  0  0
  5  6  1  0  0  0  0
  4  6  1  0  0  0  0
  3  7  1  0  0  0  0
  7  8  1  0  0  0  0
  8  9  1  0  0  0  0
  9 10  2  0  0  0  0
 10 11  1  0  0  0  0
 11 12  2  0  0  0  0
 12 13  1  0  0  0  0
 13 14  2  0  0  0  0
 14 15  1  0  0  0  0
 15 16  1  0  0  0  0
 16 17  2  0  0  0  0
  9 17  1  0  0  0  0
 13 17  1  0  0  0  0
  7 18  2  0  0  0  0
 18 19  1  0  0  0  0
 19 20  2  0  0  0  0
  2 20  1  0  0  0  0
M  END
> <ID>
CPD_2422

$$$$
CPD_2427
  Mrv1822 09091914012D          

 22 23  0  0  0  0            999 V2000
    1.4289    0.0000    0.0000 C   0  0  0  0  0  0  0  0  0  0  0  0
    2.1434   -0.4125    0.0000 N   0  0  0  0  0  0  0  0  0  0  0  0
    2.1434   -1.2375    0.0000 C   0  0  0  0  0  0  0  0  0  0  0  0
    1.4289   -1.6500    0.0000 C   0  0  0  0  0  0  0  0  0  0  0  0
    1.4289   -2.4750    0.0000 C   0  0  0  0  0  0  0  0  0  0  0  0
    2.1434   -2.8875    0.0000 C   0  0  0  0  0  0  0  0  0  0  0  0
    2.8579   -2.4750    0.0000 C   0  0  0  0  0  0  0  0  0  0  0  0
    2.8579   -1.6500    0.0000 C   0  0  0  0  0  0  0  0  0  0  0  0
    3.5724   -1.2375    0.0000 N   0  0  0  0  0  0  0  0  0  0  0  0
    4.2868   -1.6500    0.0000 C   0  0  0  0  0  0  0  0  0  0  0  0
    5.0013   -1.2375    0.0000 C   0  0  0  0  0  0  0  0  0  0  0  0
    5.7158   -1.6500    0.0000 C   0  0  0  0  0  0  0  0  0  0  0  0
    6.4302   -1.2375    0.0000 Br  0  0  0  0  0  0  0  0  0  0  0  0
    5.7158   -2.4750    0.0000 C   0  0  0  0  0  0  0  0  0  0  0  0
    6.4302   -2.8875    0.0000 Br  0  0  0  0  0  0  0  0  0  0  0  0
    5.0013   -2.8875    0.0000 C   0  0  0  0  0  0  0  0  0  0  0  0
    4.2868   -2.4750    0.0000 C   0  0  0  0  0  0  0  0  0  0  0  0
    3.5724   -2.8875    0.0000 N   0  0  0  0  0  0  0  0  0  0  0  0
    0.7145   -2.8875    0.0000 C   0  0  0  0  0  0  0  0  0  0  0  0
    0.0000   -3.3000    0.0000 F   0  0  0  0  0  0  0  0  0  0  0  0
    0.3020   -2.1730    0.0000 F   0  0  0  0  0  0  0  0  0  0  0  0
    1.1270   -3.6020    0.0000 F   0  0  0  0  0  0  0  0  0  0  0  0
  1  2  1  0  0  0  0
  2  3  1  0  0  0  0
  3  4  2  0  0  0  0
  4  5  1  0  0  0  0
  5  6  2  0  0  0  0
  6  7  1  0  0  0  0
  7  8  2  0  0  0  0
  3  8  1  0  0  0  0
  8  9  1  0  0  0  0
  9 10  1  0  0  0  0
 10 11  2  0  0  0  0
 11 12  1  0  0  0  0
 12 13  1  0  0  0  0
 12 14  2  0  0  0  0
 14 15  1  0  0  0  0
 14 16  1  0  0  0  0
 16 17  2  0  0  0  0
 10 17  1  0  0  0  0
 17 18  1  0  0  0  0
  5 19  1  0  0  0  0
 19 20  1  0  0  0  0
 19 21  1  0  0  0  0
 19 22  1  0  0  0  0
M  END
> <ID>
CPD_2427

$$$$
CPD_2432
  Mrv1822 09091914012D          

 19 20  0  0  0  0            999 V2000
    1.4289    0.0000    0.0000 C   0  0  0  0  0  0  0  0  0  0  0  0
    2.1434   -0.4125    0.0000 O   0  0  0  0  0  0  0  0  0  0  0  0
    2.1434   -1.2375    0.0000 C   0  0  0  0  0  0  0  0  0  0  0  0
    1.4289   -1.6500    0.0000 N   0  0  0  0  0  0  0  0  0  0  0  0
    1.4289   -2.4750    0.0000 C   0  0  0  0  0  0  0  0  0  0  0  0
    0.7145   -2.8875    0.0000 N   0  0  0  0  0  0  0  0  0  0  0  0
    2.1434   -2.8875    0.0000 N   0  0  0  0  0  0  0  0  0  0  0  0
    2.8579   -2.4750    0.0000 C   0  0  0  0  0  0  0  0  0  0  0  0
    2.8579   -1.6500    0.0000 C   0  0  0  0  0  0  0  0  0  0  0  0
    3.5724   -1.2375    0.0000 N   0  0  0  0  0  0  0  0  0  0  0  0
    4.2868   -1.6500    0.0000 C   0  0  0  0  0  0  0  0  0  0  0  0
    5.0013   -1.2375    0.0000 C   0  0  0  0  0  0  0  0  0  0  0  0
    5.7158   -1.6500    0.0000 C   0  0  0  0  0  0  0  0  0  0  0  0
    6.4302   -1.2375    0.0000 Br  0  0  0  0  0  0  0  0  0  0  0  0
    5.7158   -2.4750    0.0000 C   0  0  0  0  0  0  0  0  0  0  0  0
    6.4302   -2.8875    0.0000 Br  0  0  0  0  0  0  0  0  0  0  0  0
    5.0013   -2.8875    0.0000 C   0  0  0  0  0  0  0  0  0  0  0  0
    4.2868   -2.4750    0.0000 C   0  0  0  0  0  0  0  0  0  0  0  0
    3.5724   -2.8875    0.0000 N   0  0  0  0  0  0  0  0  0  0  0  0
  1  2  1  0  0  0  0
  2  3  1  0  0  0  0
  3  4  2  0  0  0  0
  4  5  1  0  0  0  0
  5  6  1  0  0  0  0
  5  7  2  0  0  0  0
  7  8  1  0  0  0  0
  8  9  2  0  0  0  0
  3  9  1  0  0  0  0
  9 10  1  0  0  0  0
 10 11  1  0  0  0  0
 11 12  2  0  0  0  0
 12 13  1  0  0  0  0
 13 14  1  0  0  0  0
 13 15  2  0  0  0  0
 15 16  1  0  0  0  0
 15 17  1  0  0  0  0
 17 18  2  0  0  0  0
 11 18  1  0  0  0  0
 18 19  1  0  0  0  0
M  END
> <ID>
CPD_2432

$$$$
CPD_2437
  Mrv1822 09091914012D          

 22 24  0  0  0  0            999 V2000
    2.7845    2.3479    0.0000 N   0  0  0  0  0  0  0  0  0  0  0  0
    3.4990    1.9354    0.0000 C   0  0  0  0  0  0  0  0  0  0  0  0
    4.2135    2.3479    0.0000 C   0  0  0  0  0  0  0  0  0  0  0  0
    4.9279    1.9354    0.0000 C   0  0  0  0  0  0  0  0  0  0  0  0
    5.6424    2.3479    0.0000 Br  0  0  0  0  0  0  0  0  0  0  0  0
    4.9279    1.1104    0.0000 C   0  0  0  0  0  0  0  0  0  0  0  0
    5.6424    0.6979    0.0000 Br  0  0  0  0  0  0  0  0  0  0  0  0
    4.2135    0.6979    0.0000 C   0  0  0  0  0  0  0  0  0  0  0  0
    3.4990    1.1104    0.0000 C   0  0  0  0  0  0  0  0  0  0  0  0
    2.7845    0.6979    0.0000 N   0  0  0  0  0  0  0  0  0  0  0  0
    2.0701    1.1104    0.0000 C   0  0  0  0  0  0  0  0  0  0  0  0
    1.3556    0.6979    0.0000 C   0  0  0  0  0  0  0  0  0  0  0  0
    0.6411    1.1104    0.0000 C   0  0  0  0  0  0  0  0  0  0  0  0
    0.6411    1.9354    0.0000 C   0  0  0  0  0  0  0  0  0  0  0  0
   -0.1435    2.1904    0.0000 C   0  0  0  0  0  0  0  0  0  0  0  0
   -0.6284    1.5229    0.0000 C   0  0  0  0  0  0  0  0  0  0  0  0
   -0.1435    0.8555    0.0000 N   0  0  0  0  0  0  0  0  0  0  0  0
    1.3556    2.3479    0.0000 C   0  0  0  0  0  0  0  0  0  0  0  0
    2.0701    1.9354    0.0000 C   0  0  0  0  0  0  0  0  0  0  0  0
    1.3556    3.1729    0.0000 C   0  0  0  0  0  0  0  0  0  0  0  0
    2.0701    3.5854    0.0000 O   0  0  0  0  0  0  0  0  0  0  0  0
    0.6411    3.5854    0.0000 O   0  0  0  0  0  0  0  0  0  0  0  0
  1  2  1  0  0  0  0
  2  3  2  0  0  0  0
  3  4  1  0  0  0  0
  4  5  1  0  0  0  0
  4  6  2  0  0  0  0
  6  7  1  0  0  0  0
  6  8  1  0  0  0  0
  8  9  2  0  0  0  0
  2  9  1  0  0  0  0
  9 10  1  0  0  0  0
 10 11  1  0  0  0  0
 11 12  2  0  0  0  0
 12 13  1  0  0  0  0
 13 14  2  0  0  0  0
 14 15  1  0  0  0  0
 15 16  2  0  0  0  0
 16 17  1  0  0  0  0
 13 17  1  0  0  0  0
 14 18  1  0  0  0  0
 18 19  2  0  0  0  0
 11 19  1  0  0  0  0
 18 20  1  0  0  0  0
 20 21  1  0  0  0  0
 20 22  2  0  0  0  0
M  END
> <ID>
CPD_2437

$$$$
CPD_2442
  Mrv1822 09091914012D          

 32 35  0  0  0  0            999 V2000
    3.5724   -1.2375    0.0000 N   0  0  0  0  0  0  0  0  0  0  0  0
    2.8579   -1.6500    0.0000 C   0  0  0  0  0  0  0  0  0  0  0  0
    2.8579   -2.4750    0.0000 N   0  0  0  0  0  0  0  0  0  0  0  0
    2.1434   -2.8875    0.0000 C   0  0  0  0  0  0  0  0  0  0  0  0
    1.4289   -2.4750    0.0000 N   0  0  0  0  0  0  0  0  0  0  0  0
    1.4289   -1.6500    0.0000 C   0  0  0  0  0  0  0  0  0  0  0  0
    0.7145   -1.2375    0.0000 N   0  0  0  0  0  0  0  0  0  0  0  0
    2.1434   -1.2375    0.0000 N   0  0  0  0  0  0  0  0  0  0  0  0
    2.1434   -3.7125    0.0000 C   0  0  0  0  0  0  0  0  0  0  0  0
    2.8109   -4.1974    0.0000 C   0  0  0  0  0  0  0  0  0  0  0  0
    2.5559   -4.9820    0.0000 C   0  0  0  0  0  0  0  0  0  0  0  0
    1.7309   -4.9820    0.0000 C   0  0  0  0  0  0  0  0  0  0  0  0
    1.2460   -5.6495    0.0000 N   0  0  0  0  0  0  0  0  0  0  0  0
    1.5815   -6.4032    0.0000 C   0  0  0  0  0  0  0  0  0  0  0  0
    1.0966   -7.0706    0.0000 C   0  0  0  0  0  0  0  0  0  0  0  0
    0.2761   -6.9844    0.0000 O   0  0  0  0  0  0  0  0  0  0  0  0
    1.4322   -7.8243    0.0000 N   0  0  0  0  0  0  0  0  0  0  0  0
    0.9473   -8.4917    0.0000 C   0  0  0  0  0  0  0  0  0  0  0  0
    1.2828   -9.2454    0.0000 C   0  0  0  0  0  0  0  0  0  0  0  0
    0.7979   -9.9128    0.0000 C   0  0  0  0  0  0  0  0  0  0  0  0
   -0.0226   -9.8266    0.0000 C   0  0  0  0  0  0  0  0  0  0  0  0
   -0.5075  -10.4940    0.0000 N   0  0  0  0  0  0  0  0  0  0  0  0
   -0.1720  -11.2477    0.0000 C   0  0  0  0  0  0  0  0  0  0  0  0
    0.6485  -11.3339    0.0000 O   0  0  0  0  0  0  0  0  0  0  0  0
   -0.6569  -11.9151    0.0000 C   0  0  0  0  0  0  0  0  0  0  0  0
   -0.4019  -12.6998    0.0000 C   0  0  0  0  0  0  0  0  0  0  0  0
   -1.0694  -13.1847    0.0000 C   0  0  0  0  0  0  0  0  0  0  0  0
   -1.7368  -12.6998    0.0000 C   0  0  0  0  0  0  0  0  0  0  0  0
   -1.4819  -11.9151    0.0000 O   0  0  0  0  0  0  0  0  0  0  0  0
   -0.3581   -9.0729    0.0000 C   0  0  0  0  0  0  0  0  0  0  0  0
    0.1268   -8.4055    0.0000 C   0  0  0  0  0  0  0  0  0  0  0  0
    1.4760   -4.1974    0.0000 S   0  0  0  0  0  0  0  0  0  0  0  0
  1  2  1  0  0  0  0
  2  3  2  0  0  0  0
  3  4  1  0  0  0  0
  4  5  2  0  0  0  0
  5  6  1  0  0  0  0
  6  7  1  0  0  0  0
  6  8  2  0  0  0  0
  2  8  1  0  0  0  0
  4  9  1  0  0  0  0
  9 10  2  0  0  0  0
 10 11  1  0  0  0  0
 11 12  2  0  0  0  0
 12 13  1  0  0  0  0
 13 14  1  0  0  0  0
 14 15  1  0  0  0  0
 15 16  2  0  0  0  0
 15 17  1  0  0  0  0
 17 18  1  0  0  0  0
 18 19  2  0  0  0  0
 19 20  1  0  0  0  0
 20 21  2  0  0  0  0
 21 22  1  0  0  0  0
 22 23  1  0  0  0  0
 23 24  2  0  0  0  0
 23 25  1  0  0  0  0
 25 26  2  0  0  0  0
 26 27  1  0  0  0  0
 27 28  2  0  0  0  0
 28 29  1  0  0  0  0
 25 29  1  0  0  0  0
 21 30  1  0  0  0  0
 30 31  2  0  0  0  0
 18 31  1  0  0  0  0
 12 32  1  0  0  0  0
  9 32  1  0  0  0  0
M  END
> <ID>
CPD_2442

$$$$
CPD_2447
  Mrv1822 09091914012D          

 34 37  0  0  0  0            999 V2000
   -2.2673    1.8818    0.0000 O   0  0  0  0  0  0  0  0  0  0  0  0
   -1.4604    1.7103    0.0000 C   0  0  0  0  0  0  0  0  0  0  0  0
   -0.9083    2.3234    0.0000 O   0  0  0  0  0  0  0  0  0  0  0  0
   -1.2054    0.9256    0.0000 C   0  0  0  0  0  0  0  0  0  0  0  0
   -0.3984    0.7541    0.0000 C   0  0  0  0  0  0  0  0  0  0  0  0
   -0.1435   -0.0305    0.0000 N   0  0  0  0  0  0  0  0  0  0  0  0
   -0.6284   -0.6979    0.0000 C   0  0  0  0  0  0  0  0  0  0  0  0
   -1.4534   -0.6979    0.0000 O   0  0  0  0  0  0  0  0  0  0  0  0
   -0.1435   -1.3654    0.0000 O   0  0  0  0  0  0  0  0  0  0  0  0
    0.6411   -1.1104    0.0000 C   0  0  0  0  0  0  0  0  0  0  0  0
    0.6411   -0.2854    0.0000 C   0  0  0  0  0  0  0  0  0  0  0  0
    1.3556    0.1271    0.0000 C   0  0  0  0  0  0  0  0  0  0  0  0
    2.0701   -0.2854    0.0000 C   0  0  0  0  0  0  0  0  0  0  0  0
    2.0701   -1.1104    0.0000 C   0  0  0  0  0  0  0  0  0  0  0  0
    2.7845   -1.5229    0.0000 N   0  0  0  0  0  0  0  0  0  0  0  0
    3.4990   -1.1104    0.0000 C   0  0  0  0  0  0  0  0  0  0  0  0
    4.2135   -1.5229    0.0000 C   0  0  0  0  0  0  0  0  0  0  0  0
    4.2135   -2.3479    0.0000 O   0  0  0  0  0  0  0  0  0  0  0  0
    4.9279   -1.1104    0.0000 N   0  0  0  0  0  0  0  0  0  0  0  0
    5.6424   -1.5229    0.0000 C   0  0  0  0  0  0  0  0  0  0  0  0
    6.3569   -1.1104    0.0000 C   0  0  0  0  0  0  0  0  0  0  0  0
    7.0714   -1.5229    0.0000 C   0  0  0  0  0  0  0  0  0  0  0  0
    7.0714   -2.3479    0.0000 C   0  0  0  0  0  0  0  0  0  0  0  0
    7.7858   -2.7604    0.0000 N   0  0  0  0  0  0  0  0  0  0  0  0
    8.5003   -2.3479    0.0000 C   0  0  0  0  0  0  0  0  0  0  0  0
    8.5003   -1.5229    0.0000 O   0  0  0  0  0  0  0  0  0  0  0  0
    9.2148   -2.7604    0.0000 C   0  0  0  0  0  0  0  0  0  0  0  0
    9.9684   -2.4249    0.0000 C   0  0  0  0  0  0  0  0  0  0  0  0
   10.5205   -3.0380    0.0000 C   0  0  0  0  0  0  0  0  0  0  0  0
   10.1080   -3.7525    0.0000 C   0  0  0  0  0  0  0  0  0  0  0  0
    9.3010   -3.5809    0.0000 O   0  0  0  0  0  0  0  0  0  0  0  0
    6.3569   -2.7604    0.0000 C   0  0  0  0  0  0  0  0  0  0  0  0
    5.6424   -2.3479    0.0000 C   0  0  0  0  0  0  0  0  0  0  0  0
    1.3556   -1.5229    0.0000 C   0  0  0  0  0  0  0  0  0  0  0  0
  1  2  1  0  0  0  0
  2  3  2  0  0  0  0
  2  4  1  0  0  0  0
  4  5  1  0  0  0  0
  5  6  1  0  0  0  0
  6  7  1  0  0  0  0
  7  8  2  0  0  0  0
  7  9  1  0  0  0  0
  9 10  1  0  0  0  0
 10 11  2  0  0  0  0
  6 11  1  0  0  0  0
 11 12  1  0  0  0  0
 12 13  2  0  0  0  0
 13 14  1  0  0  0  0
 14 15  1  0  0  0  0
 15 16  1  0  0  0  0
 16 17  1  0  0  0  0
 17 18  2  0  0  0  0
 17 19  1  0  0  0  0
 19 20  1  0  0  0  0
 20 21  2  0  0  0  0
 21 22  1  0  0  0  0
 22 23  2  0  0  0  0
 23 24  1  0  0  0  0
 24 25  1  0  0  0  0
 25 26  2  0  0  0  0
 25 27  1  0  0  0  0
 27 28  2  0  0  0  0
 28 29  1  0  0  0  0
 29 30  2  0  0  0  0
 30 31  1  0  0  0  0
 27 31  1  0  0  0  0
 23 32  1  0  0  0  0
 32 33  2  0  0  0  0
 20 33  1  0  0  0  0
 14 34  2  0  0  0  0
 10 34  1  0  0  0  0
M  END
> <ID>
CPD_2447

$$$$
CPD_2452
  Mrv1822 09091914012D          

 29 31  0  0  0  0            999 V2000
   -2.8579   -0.8250    0.0000 C   0  0  0  0  0  0  0  0  0  0  0  0
   -2.1434   -1.2375    0.0000 O   0  0  0  0  0  0  0  0  0  0  0  0
   -2.1434   -2.0625    0.0000 C   0  0  0  0  0  0  0  0  0  0  0  0
   -1.4289   -2.4750    0.0000 C   0  0  0  0  0  0  0  0  0  0  0  0
   -0.7145   -2.0625    0.0000 N   0  0  0  0  0  0  0  0  0  0  0  0
    0.0000   -2.4750    0.0000 C   0  0  0  0  0  0  0  0  0  0  0  0
    0.7145   -2.0625    0.0000 C   0  0  0  0  0  0  0  0  0  0  0  0
    0.7145   -1.2375    0.0000 O   0  0  0  0  0  0  0  0  0  0  0  0
    1.4289   -2.4750    0.0000 N   0  0  0  0  0  0  0  0  0  0  0  0
    2.1434   -2.0625    0.0000 C   0  0  0  0  0  0  0  0  0  0  0  0
    2.1434   -1.2375    0.0000 C   0  0  0  0  0  0  0  0  0  0  0  0
    2.8579   -0.8250    0.0000 C   0  0  0  0  0  0  0  0  0  0  0  0
    3.5724   -1.2375    0.0000 C   0  0  0  0  0  0  0  0  0  0  0  0
    4.2868   -0.8250    0.0000 N   0  0  0  0  0  0  0  0  0  0  0  0
    5.0013   -1.2375    0.0000 C   0  0  0  0  0  0  0  0  0  0  0  0
    5.0013   -2.0625    0.0000 O   0  0  0  0  0  0  0  0  0  0  0  0
    5.7158   -0.8250    0.0000 C   0  0  0  0  0  0  0  0  0  0  0  0
    5.8020   -0.0045    0.0000 C   0  0  0  0  0  0  0  0  0  0  0  0
    6.6090    0.1670    0.0000 C   0  0  0  0  0  0  0  0  0  0  0  0
    7.0215   -0.5475    0.0000 C   0  0  0  0  0  0  0  0  0  0  0  0
    6.4694   -1.1606    0.0000 O   0  0  0  0  0  0  0  0  0  0  0  0
    3.5724   -2.0625    0.0000 C   0  0  0  0  0  0  0  0  0  0  0  0
    2.8579   -2.4750    0.0000 C   0  0  0  0  0  0  0  0  0  0  0  0
   -1.4289   -3.3000    0.0000 C   0  0  0  0  0  0  0  0  0  0  0  0
   -2.1434   -3.7125    0.0000 C   0  0  0  0  0  0  0  0  0  0  0  0
   -2.1434   -4.5375    0.0000 O   0  0  0  0  0  0  0  0  0  0  0  0
   -2.8579   -3.3000    0.0000 C   0  0  0  0  0  0  0  0  0  0  0  0
   -3.5724   -3.7125    0.0000 F   0  0  0  0  0  0  0  0  0  0  0  0
   -2.8579   -2.4750    0.0000 C   0  0  0  0  0  0  0  0  0  0  0  0
  1  2  1  0  0  0  0
  2  3  1  0  0  0  0
  3  4  2  0  0  0  0
  4  5  1  0  0  0  0
  5  6  1  0  0  0  0
  6  7  1  0  0  0  0
  7  8  2  0  0  0  0
  7  9  1  0  0  0  0
  9 10  1  0  0  0  0
 10 11  2  0  0  0  0
 11 12  1  0  0  0  0
 12 13  2  0  0  0  0
 13 14  1  0  0  0  0
 14 15  1  0  0  0  0
 15 16  2  0  0  0  0
 15 17  1  0  0  0  0
 17 18  2  0  0  0  0
 18 19  1  0  0  0  0
 19 20  2  0  0  0  0
 20 21  1  0  0  0  0
 17 21  1  0  0  0  0
 13 22  1  0  0  0  0
 22 23  2  0  0  0  0
 10 23  1  0  0  0  0
  4 24  1  0  0  0  0
 24 25  2  0  0  0  0
 25 26  1  0  0  0  0
 25 27  1  0  0  0  0
 27 28  1  0  0  0  0
 27 29  2  0  0  0  0
  3 29  1  0  0  0  0
M  END
> <ID>
CPD_2452

$$$$
CPD_2457
  Mrv1822 09091914012D          

 26 27  0  0  0  0            999 V2000
   -2.9646    5.5902    0.0000 C   0  0  0  0  0  0  0  0  0  0  0  0
   -2.2501    6.0027    0.0000 O   0  0  0  0  0  0  0  0  0  0  0  0
   -1.5356    5.5902    0.0000 C   0  0  0  0  0  0  0  0  0  0  0  0
   -1.5356    4.7652    0.0000 O   0  0  0  0  0  0  0  0  0  0  0  0
   -0.8212    6.0027    0.0000 C   0  0  0  0  0  0  0  0  0  0  0  0
   -0.1067    5.5902    0.0000 C   0  0  0  0  0  0  0  0  0  0  0  0
    0.6078    6.0027    0.0000 C   0  0  0  0  0  0  0  0  0  0  0  0
    0.6078    6.8277    0.0000 F   0  0  0  0  0  0  0  0  0  0  0  0
    1.3222    5.5902    0.0000 C   0  0  0  0  0  0  0  0  0  0  0  0
    1.3222    4.7652    0.0000 C   0  0  0  0  0  0  0  0  0  0  0  0
    2.0367    4.3527    0.0000 N   0  0  0  0  0  0  0  0  0  0  0  0
    2.0367    3.5277    0.0000 C   0  0  0  0  0  0  0  0  0  0  0  0
    2.7041    3.0428    0.0000 C   0  0  0  0  0  0  0  0  0  0  0  0
    2.4492    2.2581    0.0000 C   0  0  0  0  0  0  0  0  0  0  0  0
    2.9341    1.5907    0.0000 N   0  0  0  0  0  0  0  0  0  0  0  0
    3.7546    1.6769    0.0000 C   0  0  0  0  0  0  0  0  0  0  0  0
    4.0902    2.4306    0.0000 O   0  0  0  0  0  0  0  0  0  0  0  0
    4.2395    1.0095    0.0000 O   0  0  0  0  0  0  0  0  0  0  0  0
    5.0600    1.0957    0.0000 C   0  0  0  0  0  0  0  0  0  0  0  0
    5.8805    1.1820    0.0000 C   0  0  0  0  0  0  0  0  0  0  0  0
    5.1462    0.2752    0.0000 C   0  0  0  0  0  0  0  0  0  0  0  0
    4.9738    1.9162    0.0000 C   0  0  0  0  0  0  0  0  0  0  0  0
    1.6242    2.2581    0.0000 C   0  0  0  0  0  0  0  0  0  0  0  0
    1.3693    3.0428    0.0000 S   0  0  0  0  0  0  0  0  0  0  0  0
    0.6078    4.3527    0.0000 C   0  0  0  0  0  0  0  0  0  0  0  0
   -0.1067    4.7652    0.0000 C   0  0  0  0  0  0  0  0  0  0  0  0
  1  2  1  0  0  0  0
  2  3  1  0  0  0  0
  3  4  2  0  0  0  0
  3  5  1  0  0  0  0
  5  6  1  0  0  0  0
  6  7  2  0  0  0  0
  7  8  1  0  0  0  0
  7  9  1  0  0  0  0
  9 10  2  0  0  0  0
 10 11  1  0  0  0  0
 11 12  1  0  0  0  0
 12 13  2  0  0  0  0
 13 14  1  0  0  0  0
 14 15  1  0  0  0  0
 15 16  1  0  0  0  0
 16 17  2  0  0  0  0
 16 18  1  0  0  0  0
 18 19  1  0  0  0  0
 19 20  1  0  0  0  0
 19 21  1  0  0  0  0
 19 22  1  0  0  0  0
 14 23  2  0  0  0  0
 23 24  1  0  0  0  0
 12 24  1  0  0  0  0
 10 25  1  0  0  0  0
 25 26  2  0  0  0  0
  6 26  1  0  0  0  0
M  END
> <ID>
CPD_2457

$$$$
CPD_2462
  Mrv1822 09091914012D          

 27 29  0  0  0  0            999 V2000
    2.1434   -0.4125    0.0000 N   0  0  0  0  0  0  0  0  0  0  0  0
    2.1434   -1.2375    0.0000 C   0  0  0  0  0  0  0  0  0  0  0  0
    1.4289   -1.6500    0.0000 C   0  0  0  0  0  0  0  0  0  0  0  0
    1.4289   -2.4750    0.0000 C   0  0  0  0  0  0  0  0  0  0  0  0
    0.7145   -2.8875    0.0000 C   0  0  0  0  0  0  0  0  0  0  0  0
    0.0000   -3.3000    0.0000 N   0  0  0  0  0  0  0  0  0  0  0  0
    2.1434   -2.8875    0.0000 C   0  0  0  0  0  0  0  0  0  0  0  0
    2.1434   -3.7125    0.0000 N   0  0  0  0  0  0  0  0  0  0  0  0
    2.8579   -2.4750    0.0000 C   0  0  0  0  0  0  0  0  0  0  0  0
    2.8579   -1.6500    0.0000 C   0  0  0  0  0  0  0  0  0  0  0  0
    3.5724   -2.8875    0.0000 N   0  0  0  0  0  0  0  0  0  0  0  0
    4.2868   -2.4750    0.0000 C   0  0  0  0  0  0  0  0  0  0  0  0
    4.2868   -1.6500    0.0000 C   0  0  0  0  0  0  0  0  0  0  0  0
    5.0013   -1.2375    0.0000 C   0  0  0  0  0  0  0  0  0  0  0  0
    5.7158   -1.6500    0.0000 F   0  0  0  0  0  0  0  0  0  0  0  0
    5.0013   -0.4125    0.0000 C   0  0  0  0  0  0  0  0  0  0  0  0
    4.2868    0.0000    0.0000 C   0  0  0  0  0  0  0  0  0  0  0  0
    3.5724   -0.4125    0.0000 C   0  0  0  0  0  0  0  0  0  0  0  0
    3.5724   -1.2375    0.0000 C   0  0  0  0  0  0  0  0  0  0  0  0
    3.5724   -3.7125    0.0000 C   0  0  0  0  0  0  0  0  0  0  0  0
    4.2868   -4.1250    0.0000 C   0  0  0  0  0  0  0  0  0  0  0  0
    5.0013   -3.7125    0.0000 F   0  0  0  0  0  0  0  0  0  0  0  0
    4.2868   -4.9500    0.0000 C   0  0  0  0  0  0  0  0  0  0  0  0
    3.5724   -5.3625    0.0000 C   0  0  0  0  0  0  0  0  0  0  0  0
    3.5724   -6.1875    0.0000 Cl  0  0  0  0  0  0  0  0  0  0  0  0
    2.8579   -4.9500    0.0000 C   0  0  0  0  0  0  0  0  0  0  0  0
    2.8579   -4.1250    0.0000 C   0  0  0  0  0  0  0  0  0  0  0  0
  1  2  1  0  0  0  0
  2  3  2  0  0  0  0
  3  4  1  0  0  0  0
  4  5  1  0  0  0  0
  5  6  3  0  0  0  0
  4  7  2  0  0  0  0
  7  8  1  0  0  0  0
  7  9  1  0  0  0  0
  9 10  2  0  0  0  0
  2 10  1  0  0  0  0
  9 11  1  0  0  0  0
 11 12  1  0  0  0  0
 12 13  1  0  0  0  0
 13 14  2  0  0  0  0
 14 15  1  0  0  0  0
 14 16  1  0  0  0  0
 16 17  2  0  0  0  0
 17 18  1  0  0  0  0
 18 19  2  0  0  0  0
 13 19  1  0  0  0  0
 11 20  1  0  0  0  0
 20 21  2  0  0  0  0
 21 22  1  0  0  0  0
 21 23  1  0  0  0  0
 23 24  2  0  0  0  0
 24 25  1  0  0  0  0
 24 26  1  0  0  0  0
 26 27  2  0  0  0  0
 20 27  1  0  0  0  0
M  END
> <ID>
CPD_2462

$$$$
CPD_2467
  Mrv1822 09091914012D          

 32 36  0  0  0  0            999 V2000
    8.9627    7.1451    0.0000 N   0  0  0  0  0  0  0  0  0  0  0  0
    8.1377    7.1451    0.0000 C   0  0  0  0  0  0  0  0  0  0  0  0
    7.7252    6.4306    0.0000 C   0  0  0  0  0  0  0  0  0  0  0  0
    6.9002    6.4306    0.0000 C   0  0  0  0  0  0  0  0  0  0  0  0
    6.4877    5.7162    0.0000 C   0  0  0  0  0  0  0  0  0  0  0  0
    5.6672    5.6299    0.0000 N   0  0  0  0  0  0  0  0  0  0  0  0
    5.4957    4.8229    0.0000 C   0  0  0  0  0  0  0  0  0  0  0  0
    6.2102    4.4104    0.0000 C   0  0  0  0  0  0  0  0  0  0  0  0
    6.8233    4.9625    0.0000 N   0  0  0  0  0  0  0  0  0  0  0  0
    6.2102    3.5854    0.0000 C   0  0  0  0  0  0  0  0  0  0  0  0
    5.4957    3.1729    0.0000 C   0  0  0  0  0  0  0  0  0  0  0  0
    4.7812    3.5854    0.0000 C   0  0  0  0  0  0  0  0  0  0  0  0
    4.7812    4.4104    0.0000 C   0  0  0  0  0  0  0  0  0  0  0  0
    4.0668    3.1729    0.0000 N   0  0  0  0  0  0  0  0  0  0  0  0
    3.3523    3.5854    0.0000 C   0  0  0  0  0  0  0  0  0  0  0  0
    2.6378    3.1729    0.0000 C   0  0  0  0  0  0  0  0  0  0  0  0
    1.9233    3.5854    0.0000 C   0  0  0  0  0  0  0  0  0  0  0  0
    1.2089    3.1729    0.0000 C   0  0  0  0  0  0  0  0  0  0  0  0
    0.4944    3.5854    0.0000 C   0  0  0  0  0  0  0  0  0  0  0  0
    0.4944    4.4104    0.0000 C   0  0  0  0  0  0  0  0  0  0  0  0
    1.2089    4.8229    0.0000 C   0  0  0  0  0  0  0  0  0  0  0  0
    1.9233    4.4104    0.0000 C   0  0  0  0  0  0  0  0  0  0  0  0
    4.0668    2.3479    0.0000 C   0  0  0  0  0  0  0  0  0  0  0  0
    3.3523    1.9354    0.0000 C   0  0  0  0  0  0  0  0  0  0  0  0
    3.3523    1.1104    0.0000 C   0  0  0  0  0  0  0  0  0  0  0  0
    2.6378    0.6979    0.0000 C   0  0  0  0  0  0  0  0  0  0  0  0
    1.9233    1.1104    0.0000 C   0  0  0  0  0  0  0  0  0  0  0  0
    1.1387    0.8555    0.0000 N   0  0  0  0  0  0  0  0  0  0  0  0
    0.6538    1.5229    0.0000 C   0  0  0  0  0  0  0  0  0  0  0  0
    1.1387    2.1904    0.0000 C   0  0  0  0  0  0  0  0  0  0  0  0
    1.9233    1.9354    0.0000 C   0  0  0  0  0  0  0  0  0  0  0  0
    2.6378    2.3479    0.0000 C   0  0  0  0  0  0  0  0  0  0  0  0
  1  2  1  0  0  0  0
  2  3  1  0  0  0  0
  3  4  1  0  0  0  0
  4  5  1  0  0  0  0
  5  6  2  0  0  0  0
  6  7  1  0  0  0  0
  7  8  2  0  0  0  0
  8  9  1  0  0  0  0
  5  9  1  0  0  0  0
  8 10  1  0  0  0  0
 10 11  2  0  0  0  0
 11 12  1  0  0  0  0
 12 13  2  0  0  0  0
  7 13  1  0  0  0  0
 12 14  1  0  0  0  0
 14 15  1  0  0  0  0
 15 16  1  0  0  0  0
 16 17  1  0  0  0  0
 17 18  2  0  0  0  0
 18 19  1  0  0  0  0
 19 20  2  0  0  0  0
 20 21  1  0  0  0  0
 21 22  2  0  0  0  0
 17 22  1  0  0  0  0
 14 23  1  0  0  0  0
 23 24  1  0  0  0  0
 24 25  2  0  0  0  0
 25 26  1  0  0  0  0
 26 27  2  0  0  0  0
 27 28  1  0  0  0  0
 28 29  1  0  0  0  0
 29 30  2  0  0  0  0
 30 31  1  0  0  0  0
 27 31  1  0  0  0  0
 31 32  2  0  0  0  0
 24 32  1  0  0  0  0
M  END
> <ID>
CPD_2467

$$$$
CPD_2472
  Mrv1822 09091914012D          

 31 34  0  0  0  0            999 V2000
   -3.6791    0.2277    0.0000 N   0  0  0  0  0  0  0  0  0  0  0  0
   -3.6791    1.0527    0.0000 C   0  0  0  0  0  0  0  0  0  0  0  0
   -4.3935    1.4652    0.0000 C   0  0  0  0  0  0  0  0  0  0  0  0
   -4.3935    2.2902    0.0000 C   0  0  0  0  0  0  0  0  0  0  0  0
   -3.6791    2.7027    0.0000 C   0  0  0  0  0  0  0  0  0  0  0  0
   -2.9646    2.2902    0.0000 C   0  0  0  0  0  0  0  0  0  0  0  0
   -2.9646    1.4652    0.0000 C   0  0  0  0  0  0  0  0  0  0  0  0
   -3.6791    3.5277    0.0000 S   0  0  0  0  0  0  0  0  0  0  0  0
   -2.8541    3.5277    0.0000 O   0  0  0  0  0  0  0  0  0  0  0  0
   -4.5041    3.5277    0.0000 O   0  0  0  0  0  0  0  0  0  0  0  0
   -3.6791    4.3527    0.0000 N   0  0  0  0  0  0  0  0  0  0  0  0
   -2.9646    4.7652    0.0000 C   0  0  0  0  0  0  0  0  0  0  0  0
   -2.9646    5.5902    0.0000 C   0  0  0  0  0  0  0  0  0  0  0  0
   -2.2501    6.0027    0.0000 C   0  0  0  0  0  0  0  0  0  0  0  0
   -1.5356    5.5902    0.0000 C   0  0  0  0  0  0  0  0  0  0  0  0
   -0.8212    6.0027    0.0000 N   0  0  0  0  0  0  0  0  0  0  0  0
   -0.1067    5.5902    0.0000 C   0  0  0  0  0  0  0  0  0  0  0  0
    0.6078    6.0027    0.0000 C   0  0  0  0  0  0  0  0  0  0  0  0
    1.3222    5.5902    0.0000 C   0  0  0  0  0  0  0  0  0  0  0  0
    1.3222    4.7652    0.0000 N   0  0  0  0  0  0  0  0  0  0  0  0
    0.6078    4.3527    0.0000 C   0  0  0  0  0  0  0  0  0  0  0  0
   -0.1067    4.7652    0.0000 C   0  0  0  0  0  0  0  0  0  0  0  0
    2.0367    4.3527    0.0000 C   0  0  0  0  0  0  0  0  0  0  0  0
    2.7512    4.7652    0.0000 O   0  0  0  0  0  0  0  0  0  0  0  0
    2.0367    3.5277    0.0000 N   0  0  0  0  0  0  0  0  0  0  0  0
    2.7041    3.0428    0.0000 C   0  0  0  0  0  0  0  0  0  0  0  0
    2.4492    2.2581    0.0000 C   0  0  0  0  0  0  0  0  0  0  0  0
    1.6242    2.2581    0.0000 C   0  0  0  0  0  0  0  0  0  0  0  0
    1.3693    3.0428    0.0000 C   0  0  0  0  0  0  0  0  0  0  0  0
   -1.5356    4.7652    0.0000 C   0  0  0  0  0  0  0  0  0  0  0  0
   -2.2501    4.3527    0.0000 C   0  0  0  0  0  0  0  0  0  0  0  0
  1  2  1  0  0  0  0
  2  3  2  0  0  0  0
  3  4  1  0  0  0  0
  4  5  2  0  0  0  0
  5  6  1  0  0  0  0
  6  7  2  0  0  0  0
  2  7  1  0  0  0  0
  5  8  1  0  0  0  0
  8  9  2  0  0  0  0
  8 10  2  0  0  0  0
  8 11  1  0  0  0  0
 11 12  1  0  0  0  0
 12 13  2  0  0  0  0
 13 14  1  0  0  0  0
 14 15  2  0  0  0  0
 15 16  1  0  0  0  0
 16 17  1  0  0  0  0
 17 18  1  0  0  0  0
 18 19  1  0  0  0  0
 19 20  1  0  0  0  0
 20 21  1  0  0  0  0
 21 22  1  0  0  0  0
 17 22  1  0  0  0  0
 20 23  1  0  0  0  0
 23 24  2  0  0  0  0
 23 25  1  0  0  0  0
 25 26  1  0  0  0  0
 26 27  1  0  0  0  0
 27 28  1  0  0  0  0
 28 29  1  0  0  0  0
 25 29  1  0  0  0  0
 15 30  1  0  0  0  0
 30 31  2  0  0  0  0
 12 31  1  0  0  0  0
M  END
> <ID>
CPD_2472

$$$$
CPD_2477
  Mrv1822 09091914012D          

 30 33  0  0  0  0            999 V2000
   -7.2514    5.5902    0.0000 N   0  0  0  0  0  0  0  0  0  0  0  0
   -6.5369    6.0027    0.0000 C   0  0  0  0  0  0  0  0  0  0  0  0
   -6.5369    6.8277    0.0000 C   0  0  0  0  0  0  0  0  0  0  0  0
   -5.8225    7.2402    0.0000 C   0  0  0  0  0  0  0  0  0  0  0  0
   -5.1080    6.8277    0.0000 C   0  0  0  0  0  0  0  0  0  0  0  0
   -5.1080    6.0027    0.0000 C   0  0  0  0  0  0  0  0  0  0  0  0
   -4.3935    5.5902    0.0000 N   0  0  0  0  0  0  0  0  0  0  0  0
   -3.6791    6.0027    0.0000 C   0  0  0  0  0  0  0  0  0  0  0  0
   -3.6791    6.8277    0.0000 O   0  0  0  0  0  0  0  0  0  0  0  0
   -2.9646    5.5902    0.0000 C   0  0  0  0  0  0  0  0  0  0  0  0
   -2.2501    6.0027    0.0000 C   0  0  0  0  0  0  0  0  0  0  0  0
   -1.5356    5.5902    0.0000 C   0  0  0  0  0  0  0  0  0  0  0  0
   -0.8212    6.0027    0.0000 N   0  0  0  0  0  0  0  0  0  0  0  0
   -0.1067    5.5902    0.0000 C   0  0  0  0  0  0  0  0  0  0  0  0
    0.6078    6.0027    0.0000 C   0  0  0  0  0  0  0  0  0  0  0  0
    1.3222    5.5902    0.0000 C   0  0  0  0  0  0  0  0  0  0  0  0
    1.3222    4.7652    0.0000 N   0  0  0  0  0  0  0  0  0  0  0  0
    0.6078    4.3527    0.0000 C   0  0  0  0  0  0  0  0  0  0  0  0
   -0.1067    4.7652    0.0000 C   0  0  0  0  0  0  0  0  0  0  0  0
    2.0367    4.3527    0.0000 C   0  0  0  0  0  0  0  0  0  0  0  0
    2.7512    4.7652    0.0000 O   0  0  0  0  0  0  0  0  0  0  0  0
    2.0367    3.5277    0.0000 N   0  0  0  0  0  0  0  0  0  0  0  0
    2.7041    3.0428    0.0000 C   0  0  0  0  0  0  0  0  0  0  0  0
    2.4492    2.2581    0.0000 C   0  0  0  0  0  0  0  0  0  0  0  0
    1.6242    2.2581    0.0000 C   0  0  0  0  0  0  0  0  0  0  0  0
    1.3693    3.0428    0.0000 C   0  0  0  0  0  0  0  0  0  0  0  0
   -1.5356    4.7652    0.0000 C   0  0  0  0  0  0  0  0  0  0  0  0
   -2.2501    4.3527    0.0000 C   0  0  0  0  0  0  0  0  0  0  0  0
   -2.9646    4.7652    0.0000 C   0  0  0  0  0  0  0  0  0  0  0  0
   -5.8225    5.5902    0.0000 C   0  0  0  0  0  0  0  0  0  0  0  0
  1  2  1  0  0  0  0
  2  3  2  0  0  0  0
  3  4  1  0  0  0  0
  4  5  2  0  0  0  0
  5  6  1  0  0  0  0
  6  7  1  0  0  0  0
  7  8  1  0  0  0  0
  8  9  2  0  0  0  0
  8 10  1  0  0  0  0
 10 11  2  0  0  0  0
 11 12  1  0  0  0  0
 12 13  1  0  0  0  0
 13 14  1  0  0  0  0
 14 15  1  0  0  0  0
 15 16  1  0  0  0  0
 16 17  1  0  0  0  0
 17 18  1  0  0  0  0
 18 19  1  0  0  0  0
 14 19  1  0  0  0  0
 17 20  1  0  0  0  0
 20 21  2  0  0  0  0
 20 22  1  0  0  0  0
 22 23  1  0  0  0  0
 23 24  1  0  0  0  0
 24 25  1  0  0  0  0
 25 26  1  0  0  0  0
 22 26  1  0  0  0  0
 12 27  2  0  0  0  0
 27 28  1  0  0  0  0
 28 29  2  0  0  0  0
 10 29  1  0  0  0  0
  6 30  2  0  0  0  0
  2 30  1  0  0  0  0
M  END
> <ID>
CPD_2477

$$$$
CPD_2482
  Mrv1822 09091914012D          

 31 34  0  0  0  0            999 V2000
    1.4289   -2.4750    0.0000 N   0  0  0  0  0  0  0  0  0  0  0  0
    1.4289   -1.6500    0.0000 C   0  0  0  0  0  0  0  0  0  0  0  0
    0.7145   -1.2375    0.0000 N   0  0  0  0  0  0  0  0  0  0  0  0
    0.7145   -0.4125    0.0000 C   0  0  0  0  0  0  0  0  0  0  0  0
    1.4289    0.0000    0.0000 N   0  0  0  0  0  0  0  0  0  0  0  0
    2.1434   -0.4125    0.0000 C   0  0  0  0  0  0  0  0  0  0  0  0
    2.8579    0.0000    0.0000 C   0  0  0  0  0  0  0  0  0  0  0  0
    3.5724   -0.4125    0.0000 C   0  0  0  0  0  0  0  0  0  0  0  0
    3.5724   -1.2375    0.0000 C   0  0  0  0  0  0  0  0  0  0  0  0
    2.8579   -1.6500    0.0000 C   0  0  0  0  0  0  0  0  0  0  0  0
    2.1434   -1.2375    0.0000 C   0  0  0  0  0  0  0  0  0  0  0  0
    4.2868   -1.6500    0.0000 N   0  0  0  0  0  0  0  0  0  0  0  0
    4.2868   -2.4750    0.0000 C   0  0  0  0  0  0  0  0  0  0  0  0
    3.5724   -2.8875    0.0000 C   0  0  0  0  0  0  0  0  0  0  0  0
    3.5724   -3.7125    0.0000 C   0  0  0  0  0  0  0  0  0  0  0  0
    4.2868   -4.1250    0.0000 C   0  0  0  0  0  0  0  0  0  0  0  0
    4.2868   -4.9500    0.0000 C   0  0  0  0  0  0  0  0  0  0  0  0
    5.0013   -5.3625    0.0000 O   0  0  0  0  0  0  0  0  0  0  0  0
    3.5724   -5.3625    0.0000 O   0  0  0  0  0  0  0  0  0  0  0  0
    5.0013   -3.7125    0.0000 C   0  0  0  0  0  0  0  0  0  0  0  0
    5.7158   -4.1250    0.0000 Cl  0  0  0  0  0  0  0  0  0  0  0  0
    5.0013   -2.8875    0.0000 C   0  0  0  0  0  0  0  0  0  0  0  0
    5.0013   -1.2375    0.0000 S   0  0  0  0  0  0  0  0  0  0  0  0
    5.4138   -1.9520    0.0000 O   0  0  0  0  0  0  0  0  0  0  0  0
    4.5888   -0.5230    0.0000 O   0  0  0  0  0  0  0  0  0  0  0  0
    5.7158   -0.8250    0.0000 C   0  0  0  0  0  0  0  0  0  0  0  0
    5.7158    0.0000    0.0000 C   0  0  0  0  0  0  0  0  0  0  0  0
    6.4302    0.4125    0.0000 C   0  0  0  0  0  0  0  0  0  0  0  0
    7.1447   -0.0000    0.0000 C   0  0  0  0  0  0  0  0  0  0  0  0
    7.1447   -0.8250    0.0000 C   0  0  0  0  0  0  0  0  0  0  0  0
    6.4302   -1.2375    0.0000 C   0  0  0  0  0  0  0  0  0  0  0  0
  1  2  1  0  0  0  0
  2  3  2  0  0  0  0
  3  4  1  0  0  0  0
  4  5  2  0  0  0  0
  5  6  1  0  0  0  0
  6  7  2  0  0  0  0
  7  8  1  0  0  0  0
  8  9  2  0  0  0  0
  9 10  1  0  0  0  0
 10 11  2  0  0  0  0
  2 11  1  0  0  0  0
  6 11  1  0  0  0  0
  9 12  1  0  0  0  0
 12 13  1  0  0  0  0
 13 14  2  0  0  0  0
 14 15  1  0  0  0  0
 15 16  2  0  0  0  0
 16 17  1  0  0  0  0
 17 18  1  0  0  0  0
 17 19  2  0  0  0  0
 16 20  1  0  0  0  0
 20 21  1  0  0  0  0
 20 22  2  0  0  0  0
 13 22  1  0  0  0  0
 12 23  1  0  0  0  0
 23 24  2  0  0  0  0
 23 25  2  0  0  0  0
 23 26  1  0  0  0  0
 26 27  2  0  0  0  0
 27 28  1  0  0  0  0
 28 29  2  0  0  0  0
 29 30  1  0  0  0  0
 30 31  2  0  0  0  0
 26 31  1  0  0  0  0
M  END
> <ID>
CPD_2482

$$$$
CPD_2487
  Mrv1822 09091914012D          

 31 33  0  0  0  0            999 V2000
    2.8579    0.0000    0.0000 C   0  0  0  0  0  0  0  0  0  0  0  0
    2.8579   -0.8250    0.0000 C   0  0  0  0  0  0  0  0  0  0  0  0
    3.5724   -1.2375    0.0000 C   0  0  0  0  0  0  0  0  0  0  0  0
    2.1434   -1.2375    0.0000 O   0  0  0  0  0  0  0  0  0  0  0  0
    2.1434   -2.0625    0.0000 C   0  0  0  0  0  0  0  0  0  0  0  0
    2.8579   -2.4750    0.0000 C   0  0  0  0  0  0  0  0  0  0  0  0
    2.8579   -3.3000    0.0000 C   0  0  0  0  0  0  0  0  0  0  0  0
    2.1434   -3.7125    0.0000 C   0  0  0  0  0  0  0  0  0  0  0  0
    2.1434   -4.5375    0.0000 N   0  0  0  0  0  0  0  0  0  0  0  0
    1.4289   -3.3000    0.0000 C   0  0  0  0  0  0  0  0  0  0  0  0
    1.4289   -2.4750    0.0000 C   0  0  0  0  0  0  0  0  0  0  0  0
    0.7145   -3.7125    0.0000 N   0  0  0  0  0  0  0  0  0  0  0  0
    0.7145   -4.5375    0.0000 C   0  0  0  0  0  0  0  0  0  0  0  0
    1.4289   -4.9500    0.0000 C   0  0  0  0  0  0  0  0  0  0  0  0
    1.4289   -5.7750    0.0000 C   0  0  0  0  0  0  0  0  0  0  0  0
    0.7145   -6.1875    0.0000 C   0  0  0  0  0  0  0  0  0  0  0  0
    0.7145   -7.0125    0.0000 C   0  0  0  0  0  0  0  0  0  0  0  0
    1.4289   -7.4250    0.0000 O   0  0  0  0  0  0  0  0  0  0  0  0
   -0.0000   -7.4250    0.0000 O   0  0  0  0  0  0  0  0  0  0  0  0
    0.0000   -5.7750    0.0000 C   0  0  0  0  0  0  0  0  0  0  0  0
   -0.7145   -6.1875    0.0000 Cl  0  0  0  0  0  0  0  0  0  0  0  0
    0.0000   -4.9500    0.0000 C   0  0  0  0  0  0  0  0  0  0  0  0
    0.0000   -3.3000    0.0000 S   0  0  0  0  0  0  0  0  0  0  0  0
   -0.4125   -4.0145    0.0000 O   0  0  0  0  0  0  0  0  0  0  0  0
    0.4125   -2.5855    0.0000 O   0  0  0  0  0  0  0  0  0  0  0  0
   -0.7145   -2.8875    0.0000 C   0  0  0  0  0  0  0  0  0  0  0  0
   -1.4289   -3.3000    0.0000 C   0  0  0  0  0  0  0  0  0  0  0  0
   -2.1434   -2.8875    0.0000 C   0  0  0  0  0  0  0  0  0  0  0  0
   -2.1434   -2.0625    0.0000 C   0  0  0  0  0  0  0  0  0  0  0  0
   -1.4289   -1.6500    0.0000 C   0  0  0  0  0  0  0  0  0  0  0  0
   -0.7145   -2.0625    0.0000 C   0  0  0  0  0  0  0  0  0  0  0  0
  1  2  1  0  0  0  0
  2  3  1  0  0  0  0
  2  4  1  0  0  0  0
  4  5  1  0  0  0  0
  5  6  2  0  0  0  0
  6  7  1  0  0  0  0
  7  8  2  0  0  0  0
  8  9  1  0  0  0  0
  8 10  1  0  0  0  0
 10 11  2  0  0  0  0
  5 11  1  0  0  0  0
 10 12  1  0  0  0  0
 12 13  1  0  0  0  0
 13 14  2  0  0  0  0
 14 15  1  0  0  0  0
 15 16  2  0  0  0  0
 16 17  1  0  0  0  0
 17 18  1  0  0  0  0
 17 19  2  0  0  0  0
 16 20  1  0  0  0  0
 20 21  1  0  0  0  0
 20 22  2  0  0  0  0
 13 22  1  0  0  0  0
 12 23  1  0  0  0  0
 23 24  2  0  0  0  0
 23 25  2  0  0  0  0
 23 26  1  0  0  0  0
 26 27  2  0  0  0  0
 27 28  1  0  0  0  0
 28 29  2  0  0  0  0
 29 30  1  0  0  0  0
 30 31  2  0  0  0  0
 26 31  1  0  0  0  0
M  END
> <ID>
CPD_2487

$$$$
CPD_2492
  Mrv1822 09091914012D          

 35 38  0  0  0  0            999 V2000
    3.5724   -3.7125    0.0000 C   0  0  0  0  0  0  0  0  0  0  0  0
    3.5724   -4.5375    0.0000 C   0  0  0  0  0  0  0  0  0  0  0  0
    4.2868   -4.9500    0.0000 C   0  0  0  0  0  0  0  0  0  0  0  0
    4.2868   -5.7750    0.0000 C   0  0  0  0  0  0  0  0  0  0  0  0
    3.5724   -6.1875    0.0000 C   0  0  0  0  0  0  0  0  0  0  0  0
    2.8579   -5.7750    0.0000 C   0  0  0  0  0  0  0  0  0  0  0  0
    2.8579   -4.9500    0.0000 N   0  0  0  0  0  0  0  0  0  0  0  0
    2.1434   -4.5375    0.0000 C   0  0  0  0  0  0  0  0  0  0  0  0
    1.4289   -4.9500    0.0000 O   0  0  0  0  0  0  0  0  0  0  0  0
    2.1434   -3.7125    0.0000 C   0  0  0  0  0  0  0  0  0  0  0  0
    1.4289   -3.3000    0.0000 C   0  0  0  0  0  0  0  0  0  0  0  0
    1.4289   -2.4750    0.0000 C   0  0  0  0  0  0  0  0  0  0  0  0
    2.1434   -2.0625    0.0000 C   0  0  0  0  0  0  0  0  0  0  0  0
    2.8579   -2.4750    0.0000 C   0  0  0  0  0  0  0  0  0  0  0  0
    2.8579   -3.3000    0.0000 C   0  0  0  0  0  0  0  0  0  0  0  0
    0.7145   -2.0625    0.0000 N   0  0  0  0  0  0  0  0  0  0  0  0
    0.0000   -2.4750    0.0000 C   0  0  0  0  0  0  0  0  0  0  0  0
    0.0000   -3.3000    0.0000 C   0  0  0  0  0  0  0  0  0  0  0  0
   -0.7145   -3.7125    0.0000 C   0  0  0  0  0  0  0  0  0  0  0  0
   -1.4289   -3.3000    0.0000 C   0  0  0  0  0  0  0  0  0  0  0  0
   -2.1434   -3.7125    0.0000 C   0  0  0  0  0  0  0  0  0  0  0  0
   -2.1434   -4.5375    0.0000 O   0  0  0  0  0  0  0  0  0  0  0  0
   -2.8579   -3.3000    0.0000 O   0  0  0  0  0  0  0  0  0  0  0  0
   -1.4289   -2.4750    0.0000 C   0  0  0  0  0  0  0  0  0  0  0  0
   -2.1434   -2.0625    0.0000 Cl  0  0  0  0  0  0  0  0  0  0  0  0
   -0.7145   -2.0625    0.0000 C   0  0  0  0  0  0  0  0  0  0  0  0
    0.7145   -1.2375    0.0000 S   0  0  0  0  0  0  0  0  0  0  0  0
   -0.1105   -1.2375    0.0000 O   0  0  0  0  0  0  0  0  0  0  0  0
    1.5395   -1.2375    0.0000 O   0  0  0  0  0  0  0  0  0  0  0  0
    0.7145   -0.4125    0.0000 C   0  0  0  0  0  0  0  0  0  0  0  0
    0.0000    0.0000    0.0000 C   0  0  0  0  0  0  0  0  0  0  0  0
    0.0000    0.8250    0.0000 C   0  0  0  0  0  0  0  0  0  0  0  0
    0.7145    1.2375    0.0000 C   0  0  0  0  0  0  0  0  0  0  0  0
    1.4289    0.8250    0.0000 C   0  0  0  0  0  0  0  0  0  0  0  0
    1.4289    0.0000    0.0000 C   0  0  0  0  0  0  0  0  0  0  0  0
  1  2  1  0  0  0  0
  2  3  1  0  0  0  0
  3  4  1  0  0  0  0
  4  5  1  0  0  0  0
  5  6  1  0  0  0  0
  6  7  1  0  0  0  0
  2  7  1  0  0  0  0
  7  8  1  0  0  0  0
  8  9  2  0  0  0  0
  8 10  1  0  0  0  0
 10 11  2  0  0  0  0
 11 12  1  0  0  0  0
 12 13  2  0  0  0  0
 13 14  1  0  0  0  0
 14 15  2  0  0  0  0
 10 15  1  0  0  0  0
 12 16  1  0  0  0  0
 16 17  1  0  0  0  0
 17 18  2  0  0  0  0
 18 19  1  0  0  0  0
 19 20  2  0  0  0  0
 20 21  1  0  0  0  0
 21 22  1  0  0  0  0
 21 23  2  0  0  0  0
 20 24  1  0  0  0  0
 24 25  1  0  0  0  0
 24 26  2  0  0  0  0
 17 26  1  0  0  0  0
 16 27  1  0  0  0  0
 27 28  2  0  0  0  0
 27 29  2  0  0  0  0
 27 30  1  0  0  0  0
 30 31  2  0  0  0  0
 31 32  1  0  0  0  0
 32 33  2  0  0  0  0
 33 34  1  0  0  0  0
 34 35  2  0  0  0  0
 30 35  1  0  0  0  0
M  END
> <ID>
CPD_2492

$$$$
CPD_2497
  Mrv1822 09091914012D          

 29 34  0  0  1  0            999 V2000
    0.8517   -2.4835    0.0000 H   0  0  0  0  0  0  0  0  0  0  0  0
    0.8517   -1.6585    0.0000 C   0  0  1  0  0  0  0  0  0  0  0  0
    0.1163   -2.0322    0.0000 C   0  0  0  0  0  0  0  0  0  0  0  0
    0.5657   -1.2419    0.0000 C   0  0  2  0  0  0  0  0  0  0  0  0
   -0.2319   -1.0310    0.0000 H   0  0  0  0  0  0  0  0  0  0  0  0
    1.3012   -1.6156    0.0000 C   0  0  0  0  0  0  0  0  0  0  0  0
    2.0368   -1.2419    0.0000 C   0  0  2  0  0  0  0  0  0  0  0  0
    2.8344   -1.4529    0.0000 C   0  0  0  0  0  0  0  0  0  0  0  0
    1.5873   -2.0322    0.0000 C   0  0  0  0  0  0  0  0  0  0  0  0
    2.0368   -0.4945    0.0000 C   0  0  0  0  0  0  0  0  0  0  0  0
    1.3012   -0.1208    0.0000 C   0  0  2  0  0  0  0  0  0  0  0  0
    0.8517   -0.9111    0.0000 C   0  0  0  0  0  0  0  0  0  0  0  0
    0.5657   -0.4945    0.0000 C   0  0  0  0  0  0  0  0  0  0  0  0
    1.3012    0.7042    0.0000 N   0  0  0  0  0  0  0  0  0  0  0  0
    2.0156    1.1167    0.0000 C   0  0  0  0  0  0  0  0  0  0  0  0
    2.0156    1.9417    0.0000 C   0  0  0  0  0  0  0  0  0  0  0  0
    2.7301    2.3542    0.0000 C   0  0  0  0  0  0  0  0  0  0  0  0
    3.4446    1.9418    0.0000 C   0  0  0  0  0  0  0  0  0  0  0  0
    3.4446    1.1168    0.0000 C   0  0  0  0  0  0  0  0  0  0  0  0
    2.7301    0.7042    0.0000 C   0  0  0  0  0  0  0  0  0  0  0  0
    2.7301    3.1792    0.0000 C   0  0  0  0  0  0  0  0  0  0  0  0
    2.0626    3.6641    0.0000 C   0  0  0  0  0  0  0  0  0  0  0  0
    2.3175    4.4488    0.0000 C   0  0  0  0  0  0  0  0  0  0  0  0
    1.9050    5.1632    0.0000 C   0  0  0  0  0  0  0  0  0  0  0  0
    2.3175    5.8777    0.0000 C   0  0  0  0  0  0  0  0  0  0  0  0
    3.1425    5.8777    0.0000 C   0  0  0  0  0  0  0  0  0  0  0  0
    3.5550    5.1633    0.0000 C   0  0  0  0  0  0  0  0  0  0  0  0
    3.1425    4.4488    0.0000 C   0  0  0  0  0  0  0  0  0  0  0  0
    3.3975    3.6642    0.0000 N   0  0  0  0  0  0  0  0  0  0  0  0
  2  1  1  1  0  0  0
  2  3  1  0  0  0  0
  4  3  1  0  0  0  0
  4  5  1  6  0  0  0
  4  6  1  0  0  0  0
  7  6  1  0  0  0  0
  7  8  1  6  0  0  0
  7  9  1  0  0  0  0
  2  9  1  0  0  0  0
 11 13  1  0  0  0  0
 11 10  1  0  0  0  0
 11 12  1  0  0  0  0
  2 12  1  0  0  0  0
  7 10  1  0  0  0  0
  4 13  1  0  0  0  0
 11 14  1  1  0  0  0
 14 15  1  0  0  0  0
 15 16  2  0  0  0  0
 16 17  1  0  0  0  0
 17 18  2  0  0  0  0
 18 19  1  0  0  0  0
 19 20  2  0  0  0  0
 15 20  1  0  0  0  0
 17 21  1  0  0  0  0
 21 22  1  0  0  0  0
 22 23  1  0  0  0  0
 23 24  2  0  0  0  0
 24 25  1  0  0  0  0
 25 26  2  0  0  0  0
 26 27  1  0  0  0  0
 27 28  2  0  0  0  0
 23 28  1  0  0  0  0
 28 29  1  0  0  0  0
 21 29  1  0  0  0  0
M  END
> <ID>
CPD_2497

$$$$
CPD_2502
  Mrv1822 09091914012D          

 31 35  0  0  1  0            999 V2000
    0.8517   -2.4835    0.0000 H   0  0  0  0  0  0  0  0  0  0  0  0
    0.8517   -1.6585    0.0000 C   0  0  1  0  0  0  0  0  0  0  0  0
    0.1163   -2.0322    0.0000 C   0  0  0  0  0  0  0  0  0  0  0  0
    0.5657   -1.2419    0.0000 C   0  0  2  0  0  0  0  0  0  0  0  0
   -0.2319   -1.0310    0.0000 H   0  0  0  0  0  0  0  0  0  0  0  0
    1.3012   -1.6156    0.0000 C   0  0  0  0  0  0  0  0  0  0  0  0
    2.0368   -1.2419    0.0000 C   0  0  2  0  0  0  0  0  0  0  0  0
    2.8344   -1.4529    0.0000 C   0  0  0  0  0  0  0  0  0  0  0  0
    1.5873   -2.0322    0.0000 C   0  0  0  0  0  0  0  0  0  0  0  0
    2.0368   -0.4945    0.0000 C   0  0  0  0  0  0  0  0  0  0  0  0
    1.3012   -0.1208    0.0000 C   0  0  2  0  0  0  0  0  0  0  0  0
    0.8517   -0.9111    0.0000 C   0  0  0  0  0  0  0  0  0  0  0  0
    0.5657   -0.4945    0.0000 C   0  0  0  0  0  0  0  0  0  0  0  0
    1.3012    0.7042    0.0000 N   0  0  0  0  0  0  0  0  0  0  0  0
    2.0156    1.1167    0.0000 C   0  0  0  0  0  0  0  0  0  0  0  0
    2.0156    1.9417    0.0000 C   0  0  0  0  0  0  0  0  0  0  0  0
    2.7301    2.3542    0.0000 C   0  0  0  0  0  0  0  0  0  0  0  0
    3.4446    1.9418    0.0000 C   0  0  0  0  0  0  0  0  0  0  0  0
    3.4446    1.1168    0.0000 C   0  0  0  0  0  0  0  0  0  0  0  0
    2.7301    0.7042    0.0000 C   0  0  0  0  0  0  0  0  0  0  0  0
    4.1590    2.3543    0.0000 C   0  0  0  0  0  0  0  0  0  0  0  0
    4.1590    3.1793    0.0000 O   0  0  0  0  0  0  0  0  0  0  0  0
    4.8735    1.9418    0.0000 C   0  0  0  0  0  0  0  0  0  0  0  0
    5.5880    2.3543    0.0000 C   0  0  0  0  0  0  0  0  0  0  0  0
    6.3024    1.9418    0.0000 C   0  0  0  0  0  0  0  0  0  0  0  0
    6.3025    1.1168    0.0000 C   0  0  0  0  0  0  0  0  0  0  0  0
    5.5880    0.7043    0.0000 C   0  0  0  0  0  0  0  0  0  0  0  0
    4.8735    1.1168    0.0000 C   0  0  0  0  0  0  0  0  0  0  0  0
    5.5879    3.1793    0.0000 C   0  0  0  0  0  0  0  0  0  0  0  0
    6.3024    3.5918    0.0000 O   0  0  0  0  0  0  0  0  0  0  0  0
    4.8735    3.5918    0.0000 O   0  0  0  0  0  0  0  0  0  0  0  0
  2  1  1  1  0  0  0
  2  3  1  0  0  0  0
  4  3  1  0  0  0  0
  4  5  1  6  0  0  0
  4  6  1  0  0  0  0
  7  6  1  0  0  0  0
  7  8  1  6  0  0  0
  7  9  1  0  0  0  0
  2  9  1  0  0  0  0
 11 13  1  0  0  0  0
 11 10  1  0  0  0  0
 11 12  1  0  0  0  0
  2 12  1  0  0  0  0
  7 10  1  0  0  0  0
  4 13  1  0  0  0  0
 11 14  1  1  0  0  0
 14 15  1  0  0  0  0
 15 16  2  0  0  0  0
 16 17  1  0  0  0  0
 17 18  2  0  0  0  0
 18 19  1  0  0  0  0
 19 20  2  0  0  0  0
 15 20  1  0  0  0  0
 18 21  1  0  0  0  0
 21 22  2  0  0  0  0
 21 23  1  0  0  0  0
 23 24  2  0  0  0  0
 24 25  1  0  0  0  0
 25 26  2  0  0  0  0
 26 27  1  0  0  0  0
 27 28  2  0  0  0  0
 23 28  1  0  0  0  0
 24 29  1  0  0  0  0
 29 30  1  0  0  0  0
 29 31  2  0  0  0  0
M  END
> <ID>
CPD_2502

$$$$
CPD_2507
  Mrv1822 09091914012D          

 23 24  0  0  0  0            999 V2000
    0.0000   -1.6500    0.0000 C   0  0  0  0  0  0  0  0  0  0  0  0
    0.7145   -1.2375    0.0000 N   0  0  0  0  0  0  0  0  0  0  0  0
    1.4289   -1.6500    0.0000 C   0  0  0  0  0  0  0  0  0  0  0  0
    1.4289   -2.4750    0.0000 C   0  0  0  0  0  0  0  0  0  0  0  0
    2.0964   -2.9599    0.0000 N   0  0  0  0  0  0  0  0  0  0  0  0
    1.8414   -3.7445    0.0000 N   0  0  0  0  0  0  0  0  0  0  0  0
    2.3264   -4.4120    0.0000 C   0  0  0  0  0  0  0  0  0  0  0  0
    1.0164   -3.7445    0.0000 C   0  0  0  0  0  0  0  0  0  0  0  0
    0.7615   -2.9599    0.0000 C   0  0  0  0  0  0  0  0  0  0  0  0
   -0.0231   -2.7050    0.0000 Cl  0  0  0  0  0  0  0  0  0  0  0  0
    0.7145   -0.4125    0.0000 C   0  0  0  0  0  0  0  0  0  0  0  0
    0.0000    0.0000    0.0000 C   0  0  0  0  0  0  0  0  0  0  0  0
   -0.7145   -0.4125    0.0000 F   0  0  0  0  0  0  0  0  0  0  0  0
    0.0000    0.8250    0.0000 C   0  0  0  0  0  0  0  0  0  0  0  0
   -0.7145    1.2375    0.0000 F   0  0  0  0  0  0  0  0  0  0  0  0
    0.7145    1.2375    0.0000 C   0  0  0  0  0  0  0  0  0  0  0  0
    0.7145    2.0625    0.0000 Cl  0  0  0  0  0  0  0  0  0  0  0  0
    1.4289    0.8250    0.0000 C   0  0  0  0  0  0  0  0  0  0  0  0
    2.1434    1.2375    0.0000 F   0  0  0  0  0  0  0  0  0  0  0  0
    1.4289    0.0000    0.0000 C   0  0  0  0  0  0  0  0  0  0  0  0
    2.1434   -0.4125    0.0000 C   0  0  0  0  0  0  0  0  0  0  0  0
    2.1434   -1.2375    0.0000 O   0  0  0  0  0  0  0  0  0  0  0  0
    2.8579    0.0000    0.0000 O   0  0  0  0  0  0  0  0  0  0  0  0
  1  2  1  0  0  0  0
  2  3  1  0  0  0  0
  3  4  1  0  0  0  0
  4  5  2  0  0  0  0
  5  6  1  0  0  0  0
  6  7  1  0  0  0  0
  6  8  1  0  0  0  0
  8  9  2  0  0  0  0
  4  9  1  0  0  0  0
  9 10  1  0  0  0  0
  2 11  1  0  0  0  0
 11 12  2  0  0  0  0
 12 13  1  0  0  0  0
 12 14  1  0  0  0  0
 14 15  1  0  0  0  0
 14 16  2  0  0  0  0
 16 17  1  0  0  0  0
 16 18  1  0  0  0  0
 18 19  1  0  0  0  0
 18 20  2  0  0  0  0
 11 20  1  0  0  0  0
 20 21  1  0  0  0  0
 21 22  1  0  0  0  0
 21 23  2  0  0  0  0
M  END
> <ID>
CPD_2507

$$$$
CPD_2512
  Mrv1822 09091914012D          

 27 29  0  0  0  0            999 V2000
   -1.4289   12.1286    0.0000 C   0  0  0  0  0  0  0  0  0  0  0  0
   -0.7145   11.7161    0.0000 O   0  0  0  0  0  0  0  0  0  0  0  0
   -0.7145   10.8911    0.0000 C   0  0  0  0  0  0  0  0  0  0  0  0
   -0.0000   10.4786    0.0000 C   0  0  0  0  0  0  0  0  0  0  0  0
   -0.0000    9.6536    0.0000 C   0  0  0  0  0  0  0  0  0  0  0  0
    0.7145    9.2411    0.0000 C   0  0  0  0  0  0  0  0  0  0  0  0
    0.7145    8.4161    0.0000 O   0  0  0  0  0  0  0  0  0  0  0  0
    1.4289    9.6536    0.0000 O   0  0  0  0  0  0  0  0  0  0  0  0
   -0.7145    9.2411    0.0000 C   0  0  0  0  0  0  0  0  0  0  0  0
   -1.4289    9.6536    0.0000 C   0  0  0  0  0  0  0  0  0  0  0  0
   -1.4289   10.4786    0.0000 C   0  0  0  0  0  0  0  0  0  0  0  0
   -0.7145    8.4161    0.0000 C   0  0  0  0  0  0  0  0  0  0  0  0
   -0.0000    8.0036    0.0000 C   0  0  0  0  0  0  0  0  0  0  0  0
   -0.0000    7.1786    0.0000 C   0  0  0  0  0  0  0  0  0  0  0  0
   -0.7145    6.7661    0.0000 C   0  0  0  0  0  0  0  0  0  0  0  0
   -1.4289    7.1786    0.0000 C   0  0  0  0  0  0  0  0  0  0  0  0
   -1.4289    8.0036    0.0000 C   0  0  0  0  0  0  0  0  0  0  0  0
   -0.7145    5.9411    0.0000 N   0  0  0  0  0  0  0  0  0  0  0  0
   -1.4289    5.5286    0.0000 C   0  0  0  0  0  0  0  0  0  0  0  0
   -0.0000    5.5286    0.0000 C   0  0  0  0  0  0  0  0  0  0  0  0
   -0.0000    4.7036    0.0000 C   0  0  0  0  0  0  0  0  0  0  0  0
    0.6674    4.2187    0.0000 N   0  0  0  0  0  0  0  0  0  0  0  0
    0.4125    3.4340    0.0000 N   0  0  0  0  0  0  0  0  0  0  0  0
    0.8974    2.7666    0.0000 C   0  0  0  0  0  0  0  0  0  0  0  0
   -0.4125    3.4340    0.0000 C   0  0  0  0  0  0  0  0  0  0  0  0
   -0.6674    4.2187    0.0000 C   0  0  0  0  0  0  0  0  0  0  0  0
   -1.4521    4.4736    0.0000 Cl  0  0  0  0  0  0  0  0  0  0  0  0
  1  2  1  0  0  0  0
  2  3  1  0  0  0  0
  3  4  2  0  0  0  0
  4  5  1  0  0  0  0
  5  6  1  0  0  0  0
  6  7  1  0  0  0  0
  6  8  2  0  0  0  0
  5  9  2  0  0  0  0
  9 10  1  0  0  0  0
 10 11  2  0  0  0  0
  3 11  1  0  0  0  0
  9 12  1  0  0  0  0
 12 13  2  0  0  0  0
 13 14  1  0  0  0  0
 14 15  2  0  0  0  0
 15 16  1  0  0  0  0
 16 17  2  0  0  0  0
 12 17  1  0  0  0  0
 15 18  1  0  0  0  0
 18 19  1  0  0  0  0
 18 20  1  0  0  0  0
 20 21  1  0  0  0  0
 21 22  2  0  0  0  0
 22 23  1  0  0  0  0
 23 24  1  0  0  0  0
 23 25  1  0  0  0  0
 25 26  2  0  0  0  0
 21 26  1  0  0  0  0
 26 27  1  0  0  0  0
M  END
> <ID>
CPD_2512

$$$$
CPD_2517
  Mrv1822 09091914012D          

 26 28  0  0  0  0            999 V2000
   -4.8408    1.1521    0.0000 C   0  0  0  0  0  0  0  0  0  0  0  0
   -4.8408    0.3271    0.0000 O   0  0  0  0  0  0  0  0  0  0  0  0
   -4.1263   -0.0854    0.0000 C   0  0  0  0  0  0  0  0  0  0  0  0
   -3.4118    0.3271    0.0000 O   0  0  0  0  0  0  0  0  0  0  0  0
   -4.1263   -0.9104    0.0000 C   0  0  0  0  0  0  0  0  0  0  0  0
   -3.4118   -1.3229    0.0000 C   0  0  0  0  0  0  0  0  0  0  0  0
   -3.4118   -2.1479    0.0000 C   0  0  0  0  0  0  0  0  0  0  0  0
   -4.1263   -2.5604    0.0000 C   0  0  0  0  0  0  0  0  0  0  0  0
   -4.1263   -3.3854    0.0000 O   0  0  0  0  0  0  0  0  0  0  0  0
   -4.8408   -3.7979    0.0000 C   0  0  0  0  0  0  0  0  0  0  0  0
   -4.8408   -4.6229    0.0000 C   0  0  0  0  0  0  0  0  0  0  0  0
   -5.5552   -5.0354    0.0000 C   0  0  0  0  0  0  0  0  0  0  0  0
   -6.2697   -4.6229    0.0000 C   0  0  0  0  0  0  0  0  0  0  0  0
   -6.9842   -5.0354    0.0000 N   0  0  0  0  0  0  0  0  0  0  0  0
   -6.9842   -5.8604    0.0000 C   0  0  0  0  0  0  0  0  0  0  0  0
   -7.7966   -5.7172    0.0000 C   0  0  0  0  0  0  0  0  0  0  0  0
   -6.1717   -5.7172    0.0000 C   0  0  0  0  0  0  0  0  0  0  0  0
   -5.6414   -6.3491    0.0000 C   0  0  0  0  0  0  0  0  0  0  0  0
   -5.9236   -7.1244    0.0000 C   0  0  0  0  0  0  0  0  0  0  0  0
   -6.7360   -7.2677    0.0000 N   0  0  0  0  0  0  0  0  0  0  0  0
   -7.0182   -8.0429    0.0000 C   0  0  0  0  0  0  0  0  0  0  0  0
   -7.2663   -6.6357    0.0000 C   0  0  0  0  0  0  0  0  0  0  0  0
   -6.2697   -3.7979    0.0000 C   0  0  0  0  0  0  0  0  0  0  0  0
   -5.5552   -3.3854    0.0000 C   0  0  0  0  0  0  0  0  0  0  0  0
   -4.8408   -2.1479    0.0000 C   0  0  0  0  0  0  0  0  0  0  0  0
   -4.8408   -1.3229    0.0000 C   0  0  0  0  0  0  0  0  0  0  0  0
  1  2  1  0  0  0  0
  2  3  1  0  0  0  0
  3  4  2  0  0  0  0
  3  5  1  0  0  0  0
  5  6  2  0  0  0  0
  6  7  1  0  0  0  0
  7  8  2  0  0  0  0
  8  9  1  0  0  0  0
  9 10  1  0  0  0  0
 10 11  2  0  0  0  0
 11 12  1  0  0  0  0
 12 13  2  0  0  0  0
 13 14  1  0  0  0  0
 14 15  1  0  0  0  0
 15 16  1  0  0  0  0
 15 17  1  0  0  0  0
 17 18  1  0  0  0  0
 18 19  1  0  0  0  0
 19 20  1  0  0  0  0
 20 21  1  0  0  0  0
 20 22  1  0  0  0  0
 15 22  1  0  0  0  0
 13 23  1  0  0  0  0
 23 24  2  0  0  0  0
 10 24  1  0  0  0  0
  8 25  1  0  0  0  0
 25 26  2  0  0  0  0
  5 26  1  0  0  0  0
M  END
> <ID>
CPD_2517

$$$$
CPD_2522
  Mrv1822 09091914012D          

 23 23  0  0  0  0            999 V2000
    1.0312   -0.3572    0.0000 N   0  0  0  0  0  0  0  0  0  0  0  0
    0.2062   -0.3572    0.0000 C   0  0  0  0  0  0  0  0  0  0  0  0
   -0.2062    0.3572    0.0000 C   0  0  0  0  0  0  0  0  0  0  0  0
   -1.0312    0.3572    0.0000 O   0  0  0  0  0  0  0  0  0  0  0  0
    5.5318   -1.7687    0.0000 C   0  0  0  0  0  0  0  0  0  0  0  0
    4.8173   -1.3562    0.0000 N   0  0  0  0  0  0  0  0  0  0  0  0
    4.1029   -1.7687    0.0000 C   0  0  0  0  0  0  0  0  0  0  0  0
    3.3884   -1.3562    0.0000 C   0  0  0  0  0  0  0  0  0  0  0  0
    3.3884   -0.5312    0.0000 C   0  0  0  0  0  0  0  0  0  0  0  0
    4.1029   -0.1187    0.0000 C   0  0  0  0  0  0  0  0  0  0  0  0
    3.5726    0.5132    0.0000 C   0  0  0  0  0  0  0  0  0  0  0  0
    4.8173   -0.5312    0.0000 C   0  0  0  0  0  0  0  0  0  0  0  0
    4.6332    0.5132    0.0000 N   0  0  0  0  0  0  0  0  0  0  0  0
    5.4456    0.3700    0.0000 C   0  0  0  0  0  0  0  0  0  0  0  0
    5.9759    1.0020    0.0000 N   0  0  0  0  0  0  0  0  0  0  0  0
    6.7884    0.8587    0.0000 C   0  0  0  0  0  0  0  0  0  0  0  0
    7.3187    1.4907    0.0000 C   0  0  0  0  0  0  0  0  0  0  0  0
    7.0365    2.2659    0.0000 O   0  0  0  0  0  0  0  0  0  0  0  0
    8.1312    1.3474    0.0000 O   0  0  0  0  0  0  0  0  0  0  0  0
    7.0706    0.0835    0.0000 C   0  0  0  0  0  0  0  0  0  0  0  0
    7.8830   -0.0598    0.0000 Cl  0  0  0  0  0  0  0  0  0  0  0  0
    6.5403   -0.5485    0.0000 C   0  0  0  0  0  0  0  0  0  0  0  0
    5.7278   -0.4053    0.0000 C   0  0  0  0  0  0  0  0  0  0  0  0
  1  2  1  0  0  0  0
  2  3  1  0  0  0  0
  3  4  1  0  0  0  0
  5  6  1  0  0  0  0
  6  7  1  0  0  0  0
  7  8  1  0  0  0  0
  8  9  1  0  0  0  0
  9 10  1  0  0  0  0
 10 11  1  0  0  0  0
 10 12  1  0  0  0  0
  6 12  1  0  0  0  0
 10 13  1  0  0  0  0
 13 14  1  0  0  0  0
 14 15  2  0  0  0  0
 15 16  1  0  0  0  0
 16 17  1  0  0  0  0
 17 18  1  0  0  0  0
 17 19  2  0  0  0  0
 16 20  2  0  0  0  0
 20 21  1  0  0  0  0
 20 22  1  0  0  0  0
 22 23  2  0  0  0  0
 14 23  1  0  0  0  0
M  END
> <ID>
CPD_2522

$$$$
CPD_2527
  Mrv1822 09091914012D          

 20 21  0  0  0  0            999 V2000
    3.6704   -2.3317    0.0000 C   0  0  0  0  0  0  0  0  0  0  0  0
    2.9559   -1.9192    0.0000 N   0  0  0  0  0  0  0  0  0  0  0  0
    2.2414   -2.3317    0.0000 C   0  0  0  0  0  0  0  0  0  0  0  0
    1.5269   -1.9192    0.0000 C   0  0  0  0  0  0  0  0  0  0  0  0
    1.5269   -1.0942    0.0000 C   0  0  0  0  0  0  0  0  0  0  0  0
    2.2414   -0.6817    0.0000 C   0  0  0  0  0  0  0  0  0  0  0  0
    1.7111   -0.0498    0.0000 C   0  0  0  0  0  0  0  0  0  0  0  0
    2.9559   -1.0942    0.0000 C   0  0  0  0  0  0  0  0  0  0  0  0
    2.7717   -0.0498    0.0000 N   0  0  0  0  0  0  0  0  0  0  0  0
    3.5842   -0.1930    0.0000 C   0  0  0  0  0  0  0  0  0  0  0  0
    4.1145    0.4390    0.0000 C   0  0  0  0  0  0  0  0  0  0  0  0
    3.8323    1.2142    0.0000 Br  0  0  0  0  0  0  0  0  0  0  0  0
    4.9269    0.2957    0.0000 C   0  0  0  0  0  0  0  0  0  0  0  0
    5.2091   -0.4795    0.0000 C   0  0  0  0  0  0  0  0  0  0  0  0
    6.0216   -0.6228    0.0000 C   0  0  0  0  0  0  0  0  0  0  0  0
    6.5519    0.0092    0.0000 O   0  0  0  0  0  0  0  0  0  0  0  0
    6.3037   -1.3980    0.0000 O   0  0  0  0  0  0  0  0  0  0  0  0
    4.6788   -1.1115    0.0000 C   0  0  0  0  0  0  0  0  0  0  0  0
    4.9610   -1.8868    0.0000 N   0  0  0  0  0  0  0  0  0  0  0  0
    3.8663   -0.9683    0.0000 C   0  0  0  0  0  0  0  0  0  0  0  0
  1  2  1  0  0  0  0
  2  3  1  0  0  0  0
  3  4  1  0  0  0  0
  4  5  1  0  0  0  0
  5  6  1  0  0  0  0
  6  7  1  0  0  0  0
  6  8  1  0  0  0  0
  2  8  1  0  0  0  0
  6  9  1  0  0  0  0
  9 10  1  0  0  0  0
 10 11  2  0  0  0  0
 11 12  1  0  0  0  0
 11 13  1  0  0  0  0
 13 14  2  0  0  0  0
 14 15  1  0  0  0  0
 15 16  1  0  0  0  0
 15 17  2  0  0  0  0
 14 18  1  0  0  0  0
 18 19  1  0  0  0  0
 18 20  2  0  0  0  0
 10 20  1  0  0  0  0
M  END
> <ID>
CPD_2527

$$$$
CPD_2532
  Mrv1822 09091914012D          

 26 28  0  0  0  0            999 V2000
    1.4289   -3.3000    0.0000 C   0  0  0  0  0  0  0  0  0  0  0  0
    1.4289   -4.1250    0.0000 C   0  0  0  0  0  0  0  0  0  0  0  0
    0.6039   -4.1250    0.0000 C   0  0  0  0  0  0  0  0  0  0  0  0
    2.2539   -4.1250    0.0000 C   0  0  0  0  0  0  0  0  0  0  0  0
    1.4289   -4.9500    0.0000 C   0  0  0  0  0  0  0  0  0  0  0  0
    2.0964   -5.4349    0.0000 C   0  0  0  0  0  0  0  0  0  0  0  0
    1.8414   -6.2195    0.0000 C   0  0  0  0  0  0  0  0  0  0  0  0
    2.3264   -6.8870    0.0000 C   0  0  0  0  0  0  0  0  0  0  0  0
    3.1468   -6.8007    0.0000 N   0  0  0  0  0  0  0  0  0  0  0  0
    3.6318   -7.4682    0.0000 C   0  0  0  0  0  0  0  0  0  0  0  0
    4.4522   -7.3820    0.0000 C   0  0  0  0  0  0  0  0  0  0  0  0
    4.9372   -8.0494    0.0000 C   0  0  0  0  0  0  0  0  0  0  0  0
    4.6016   -8.8031    0.0000 C   0  0  0  0  0  0  0  0  0  0  0  0
    3.7811   -8.8893    0.0000 C   0  0  0  0  0  0  0  0  0  0  0  0
    3.2962   -8.2219    0.0000 C   0  0  0  0  0  0  0  0  0  0  0  0
    5.0865   -9.4705    0.0000 C   0  0  0  0  0  0  0  0  0  0  0  0
    5.9070   -9.3843    0.0000 C   0  0  0  0  0  0  0  0  0  0  0  0
    6.3919  -10.0517    0.0000 C   0  0  0  0  0  0  0  0  0  0  0  0
    6.0564  -10.8054    0.0000 C   0  0  0  0  0  0  0  0  0  0  0  0
    5.2359  -10.8916    0.0000 N   0  0  0  0  0  0  0  0  0  0  0  0
    4.7510  -10.2242    0.0000 C   0  0  0  0  0  0  0  0  0  0  0  0
    7.2124   -9.9655    0.0000 C   0  0  0  0  0  0  0  0  0  0  0  0
    7.5480   -9.2118    0.0000 O   0  0  0  0  0  0  0  0  0  0  0  0
    7.6973  -10.6329    0.0000 O   0  0  0  0  0  0  0  0  0  0  0  0
    1.0164   -6.2195    0.0000 N   0  0  0  0  0  0  0  0  0  0  0  0
    0.7615   -5.4349    0.0000 N   0  0  0  0  0  0  0  0  0  0  0  0
  1  2  1  0  0  0  0
  2  3  1  0  0  0  0
  2  4  1  0  0  0  0
  2  5  1  0  0  0  0
  5  6  2  0  0  0  0
  6  7  1  0  0  0  0
  7  8  1  0  0  0  0
  8  9  1  0  0  0  0
  9 10  1  0  0  0  0
 10 11  2  0  0  0  0
 11 12  1  0  0  0  0
 12 13  2  0  0  0  0
 13 14  1  0  0  0  0
 14 15  2  0  0  0  0
 10 15  1  0  0  0  0
 13 16  1  0  0  0  0
 16 17  2  0  0  0  0
 17 18  1  0  0  0  0
 18 19  2  0  0  0  0
 19 20  1  0  0  0  0
 20 21  2  0  0  0  0
 16 21  1  0  0  0  0
 18 22  1  0  0  0  0
 22 23  1  0  0  0  0
 22 24  2  0  0  0  0
  7 25  2  0  0  0  0
 25 26  1  0  0  0  0
  5 26  1  0  0  0  0
M  END
> <ID>
CPD_2532

$$$$
CPD_2537
  Mrv1822 09091914012D          

 34 37  0  0  0  0            999 V2000
    6.1368    4.5375    0.0000 C   0  0  0  0  0  0  0  0  0  0  0  0
    6.1368    3.7125    0.0000 O   0  0  0  0  0  0  0  0  0  0  0  0
    5.4223    3.3000    0.0000 C   0  0  0  0  0  0  0  0  0  0  0  0
    5.4223    2.4750    0.0000 C   0  0  0  0  0  0  0  0  0  0  0  0
    4.7079    2.0625    0.0000 C   0  0  0  0  0  0  0  0  0  0  0  0
    3.9934    2.4750    0.0000 C   0  0  0  0  0  0  0  0  0  0  0  0
    3.9934    3.3000    0.0000 C   0  0  0  0  0  0  0  0  0  0  0  0
    4.7079    3.7125    0.0000 C   0  0  0  0  0  0  0  0  0  0  0  0
    3.2789    2.0625    0.0000 N   0  0  0  0  0  0  0  0  0  0  0  0
    3.2789    1.2375    0.0000 C   0  0  0  0  0  0  0  0  0  0  0  0
    3.9934    0.8250    0.0000 C   0  0  0  0  0  0  0  0  0  0  0  0
    3.9934    0.0000    0.0000 C   0  0  0  0  0  0  0  0  0  0  0  0
    4.7079   -0.4125    0.0000 O   0  0  0  0  0  0  0  0  0  0  0  0
    4.7079   -1.2375    0.0000 C   0  0  0  0  0  0  0  0  0  0  0  0
    3.2789   -0.4125    0.0000 C   0  0  0  0  0  0  0  0  0  0  0  0
    2.5645    0.0000    0.0000 C   0  0  0  0  0  0  0  0  0  0  0  0
    2.5645    0.8250    0.0000 C   0  0  0  0  0  0  0  0  0  0  0  0
    1.7798    1.0799    0.0000 O   0  0  0  0  0  0  0  0  0  0  0  0
    1.2949    0.4125    0.0000 C   0  0  0  0  0  0  0  0  0  0  0  0
    1.7798   -0.2549    0.0000 C   0  0  0  0  0  0  0  0  0  0  0  0
    0.4699    0.4125    0.0000 C   0  0  0  0  0  0  0  0  0  0  0  0
    0.0574   -0.3020    0.0000 C   0  0  0  0  0  0  0  0  0  0  0  0
    0.0574    1.1270    0.0000 O   0  0  0  0  0  0  0  0  0  0  0  0
    2.5645    2.4750    0.0000 S   0  0  0  0  0  0  0  0  0  0  0  0
    2.1520    1.7605    0.0000 O   0  0  0  0  0  0  0  0  0  0  0  0
    2.9770    3.1895    0.0000 O   0  0  0  0  0  0  0  0  0  0  0  0
    1.8500    2.8875    0.0000 C   0  0  0  0  0  0  0  0  0  0  0  0
    1.7638    3.7080    0.0000 C   0  0  0  0  0  0  0  0  0  0  0  0
    0.9568    3.8795    0.0000 S   0  0  0  0  0  0  0  0  0  0  0  0
    0.5443    3.1650    0.0000 C   0  0  0  0  0  0  0  0  0  0  0  0
    1.0963    2.5519    0.0000 C   0  0  0  0  0  0  0  0  0  0  0  0
    2.3768    4.2600    0.0000 C   0  0  0  0  0  0  0  0  0  0  0  0
    2.2053    5.0670    0.0000 O   0  0  0  0  0  0  0  0  0  0  0  0
    3.1615    4.0051    0.0000 O   0  0  0  0  0  0  0  0  0  0  0  0
  1  2  1  0  0  0  0
  2  3  1  0  0  0  0
  3  4  2  0  0  0  0
  4  5  1  0  0  0  0
  5  6  2  0  0  0  0
  6  7  1  0  0  0  0
  7  8  2  0  0  0  0
  3  8  1  0  0  0  0
  6  9  1  0  0  0  0
  9 10  1  0  0  0  0
 10 11  2  0  0  0  0
 11 12  1  0  0  0  0
 12 13  1  0  0  0  0
 13 14  1  0  0  0  0
 12 15  2  0  0  0  0
 15 16  1  0  0  0  0
 16 17  2  0  0  0  0
 10 17  1  0  0  0  0
 17 18  1  0  0  0  0
 18 19  1  0  0  0  0
 19 20  2  0  0  0  0
 16 20  1  0  0  0  0
 19 21  1  0  0  0  0
 21 22  1  0  0  0  0
 21 23  2  0  0  0  0
  9 24  1  0  0  0  0
 24 25  2  0  0  0  0
 24 26  2  0  0  0  0
 24 27  1  0  0  0  0
 27 28  2  0  0  0  0
 28 29  1  0  0  0  0
 29 30  1  0  0  0  0
 30 31  2  0  0  0  0
 27 31  1  0  0  0  0
 28 32  1  0  0  0  0
 32 33  1  0  0  0  0
 32 34  2  0  0  0  0
M  END
> <ID>
CPD_2537

$$$$
CPD_2542
  Mrv1822 09091914012D          

 32 34  0  0  0  0            999 V2000
   -2.8579   -0.8250    0.0000 C   0  0  0  0  0  0  0  0  0  0  0  0
   -2.8579   -1.6500    0.0000 C   0  0  0  0  0  0  0  0  0  0  0  0
   -2.1434   -2.0625    0.0000 N   0  0  0  0  0  0  0  0  0  0  0  0
   -2.1434   -2.8875    0.0000 C   0  0  0  0  0  0  0  0  0  0  0  0
   -1.4289   -3.3000    0.0000 C   0  0  0  0  0  0  0  0  0  0  0  0
   -1.4289   -4.1250    0.0000 C   0  0  0  0  0  0  0  0  0  0  0  0
   -2.1434   -4.5375    0.0000 C   0  0  0  0  0  0  0  0  0  0  0  0
   -2.1434   -5.3625    0.0000 O   0  0  0  0  0  0  0  0  0  0  0  0
   -2.8579   -5.7750    0.0000 C   0  0  0  0  0  0  0  0  0  0  0  0
   -2.8579   -4.1250    0.0000 C   0  0  0  0  0  0  0  0  0  0  0  0
   -2.8579   -3.3000    0.0000 C   0  0  0  0  0  0  0  0  0  0  0  0
   -3.5724   -4.5375    0.0000 C   0  0  0  0  0  0  0  0  0  0  0  0
   -4.2868   -4.1250    0.0000 O   0  0  0  0  0  0  0  0  0  0  0  0
   -3.5724   -5.3625    0.0000 O   0  0  0  0  0  0  0  0  0  0  0  0
   -4.2868   -5.7750    0.0000 C   0  0  0  0  0  0  0  0  0  0  0  0
   -1.4289   -1.6500    0.0000 S   0  0  0  0  0  0  0  0  0  0  0  0
   -1.0164   -2.3645    0.0000 O   0  0  0  0  0  0  0  0  0  0  0  0
   -1.8414   -0.9355    0.0000 O   0  0  0  0  0  0  0  0  0  0  0  0
   -0.7145   -1.2375    0.0000 C   0  0  0  0  0  0  0  0  0  0  0  0
    0.0000   -1.6500    0.0000 C   0  0  0  0  0  0  0  0  0  0  0  0
    0.7145   -1.2375    0.0000 C   0  0  0  0  0  0  0  0  0  0  0  0
    0.7145   -0.4125    0.0000 C   0  0  0  0  0  0  0  0  0  0  0  0
    0.0000   -0.0000    0.0000 C   0  0  0  0  0  0  0  0  0  0  0  0
   -0.7145   -0.4125    0.0000 C   0  0  0  0  0  0  0  0  0  0  0  0
    1.4289   -0.0000    0.0000 N   0  0  0  0  0  0  0  0  0  0  0  0
    1.4289    0.8250    0.0000 C   0  0  0  0  0  0  0  0  0  0  0  0
    2.1434   -0.4125    0.0000 C   0  0  0  0  0  0  0  0  0  0  0  0
    2.8579   -0.0000    0.0000 O   0  0  0  0  0  0  0  0  0  0  0  0
    2.1434   -1.2375    0.0000 N   0  0  0  0  0  0  0  0  0  0  0  0
    2.8579   -1.6500    0.0000 C   0  0  0  0  0  0  0  0  0  0  0  0
    1.4289   -1.6500    0.0000 C   0  0  0  0  0  0  0  0  0  0  0  0
    1.4289   -2.4750    0.0000 O   0  0  0  0  0  0  0  0  0  0  0  0
  1  2  1  0  0  0  0
  2  3  1  0  0  0  0
  3  4  1  0  0  0  0
  4  5  2  0  0  0  0
  5  6  1  0  0  0  0
  6  7  2  0  0  0  0
  7  8  1  0  0  0  0
  8  9  1  0  0  0  0
  7 10  1  0  0  0  0
 10 11  2  0  0  0  0
  4 11  1  0  0  0  0
 10 12  1  0  0  0  0
 12 13  2  0  0  0  0
 12 14  1  0  0  0  0
 14 15  1  0  0  0  0
  3 16  1  0  0  0  0
 16 17  2  0  0  0  0
 16 18  2  0  0  0  0
 16 19  1  0  0  0  0
 19 20  2  0  0  0  0
 20 21  1  0  0  0  0
 21 22  2  0  0  0  0
 22 23  1  0  0  0  0
 23 24  2  0  0  0  0
 19 24  1  0  0  0  0
 22 25  1  0  0  0  0
 25 26  1  0  0  0  0
 25 27  1  0  0  0  0
 27 28  2  0  0  0  0
 27 29  1  0  0  0  0
 29 30  1  0  0  0  0
 29 31  1  0  0  0  0
 21 31  1  0  0  0  0
 31 32  2  0  0  0  0
M  END
> <ID>
CPD_2542

$$$$
CPD_2547
  Mrv1822 09091914012D          

 33 35  0  0  0  0            999 V2000
    2.1434   -8.6625    0.0000 C   0  0  0  0  0  0  0  0  0  0  0  0
    2.8579   -8.2500    0.0000 C   0  0  0  0  0  0  0  0  0  0  0  0
    3.5724   -8.6625    0.0000 C   0  0  0  0  0  0  0  0  0  0  0  0
    4.2868   -8.2500    0.0000 C   0  0  0  0  0  0  0  0  0  0  0  0
    5.0013   -8.6625    0.0000 N   0  0  0  0  0  0  0  0  0  0  0  0
    5.7158   -8.2500    0.0000 C   0  0  0  0  0  0  0  0  0  0  0  0
    6.4302   -8.6625    0.0000 C   0  0  0  0  0  0  0  0  0  0  0  0
    7.1447   -8.2500    0.0000 C   0  0  0  0  0  0  0  0  0  0  0  0
    7.1447   -7.4250    0.0000 F   0  0  0  0  0  0  0  0  0  0  0  0
    7.8592   -8.6625    0.0000 C   0  0  0  0  0  0  0  0  0  0  0  0
    7.8592   -9.4875    0.0000 C   0  0  0  0  0  0  0  0  0  0  0  0
    7.1447   -9.9000    0.0000 C   0  0  0  0  0  0  0  0  0  0  0  0
    6.4302   -9.4875    0.0000 C   0  0  0  0  0  0  0  0  0  0  0  0
    8.5737   -8.2500    0.0000 N   0  0  0  0  0  0  0  0  0  0  0  0
    8.5737   -7.4250    0.0000 C   0  0  0  0  0  0  0  0  0  0  0  0
    9.2881   -7.0125    0.0000 C   0  0  0  0  0  0  0  0  0  0  0  0
    9.2881   -8.6625    0.0000 S   0  0  0  0  0  0  0  0  0  0  0  0
    8.8756   -9.3770    0.0000 O   0  0  0  0  0  0  0  0  0  0  0  0
    9.7006   -7.9480    0.0000 O   0  0  0  0  0  0  0  0  0  0  0  0
   10.0026   -9.0750    0.0000 C   0  0  0  0  0  0  0  0  0  0  0  0
   10.0026   -9.9000    0.0000 C   0  0  0  0  0  0  0  0  0  0  0  0
   10.7171  -10.3125    0.0000 C   0  0  0  0  0  0  0  0  0  0  0  0
   11.4315   -9.9000    0.0000 C   0  0  0  0  0  0  0  0  0  0  0  0
   11.4315   -9.0750    0.0000 C   0  0  0  0  0  0  0  0  0  0  0  0
   10.7171   -8.6625    0.0000 C   0  0  0  0  0  0  0  0  0  0  0  0
   12.1460  -10.3125    0.0000 N   0  0  0  0  0  0  0  0  0  0  0  0
   12.8605   -9.9000    0.0000 C   0  0  0  0  0  0  0  0  0  0  0  0
   12.1460  -11.1375    0.0000 C   0  0  0  0  0  0  0  0  0  0  0  0
   12.8605  -11.5500    0.0000 O   0  0  0  0  0  0  0  0  0  0  0  0
   11.4315  -11.5500    0.0000 N   0  0  0  0  0  0  0  0  0  0  0  0
   11.4315  -12.3750    0.0000 C   0  0  0  0  0  0  0  0  0  0  0  0
   10.7171  -11.1375    0.0000 C   0  0  0  0  0  0  0  0  0  0  0  0
   10.0026  -11.5500    0.0000 O   0  0  0  0  0  0  0  0  0  0  0  0
  1  2  1  0  0  0  0
  2  3  1  0  0  0  0
  3  4  1  0  0  0  0
  4  5  1  0  0  0  0
  5  6  1  0  0  0  0
  6  7  1  0  0  0  0
  7  8  2  0  0  0  0
  8  9  1  0  0  0  0
  8 10  1  0  0  0  0
 10 11  2  0  0  0  0
 11 12  1  0  0  0  0
 12 13  2  0  0  0  0
  7 13  1  0  0  0  0
 10 14  1  0  0  0  0
 14 15  1  0  0  0  0
 15 16  1  0  0  0  0
 14 17  1  0  0  0  0
 17 18  2  0  0  0  0
 17 19  2  0  0  0  0
 17 20  1  0  0  0  0
 20 21  2  0  0  0  0
 21 22  1  0  0  0  0
 22 23  2  0  0  0  0
 23 24  1  0  0  0  0
 24 25  2  0  0  0  0
 20 25  1  0  0  0  0
 23 26  1  0  0  0  0
 26 27  1  0  0  0  0
 26 28  1  0  0  0  0
 28 29  2  0  0  0  0
 28 30  1  0  0  0  0
 30 31  1  0  0  0  0
 30 32  1  0  0  0  0
 22 32  1  0  0  0  0
 32 33  2  0  0  0  0
M  END
> <ID>
CPD_2547

$$$$
CPD_2552
  Mrv1822 09091914012D          

 31 33  0  0  0  0            999 V2000
    1.4289   -0.8250    0.0000 C   0  0  0  0  0  0  0  0  0  0  0  0
    2.1434   -1.2375    0.0000 O   0  0  0  0  0  0  0  0  0  0  0  0
    2.1434   -2.0625    0.0000 C   0  0  0  0  0  0  0  0  0  0  0  0
    2.8579   -2.4750    0.0000 C   0  0  0  0  0  0  0  0  0  0  0  0
    2.8579   -3.3000    0.0000 C   0  0  0  0  0  0  0  0  0  0  0  0
    3.5724   -3.7125    0.0000 F   0  0  0  0  0  0  0  0  0  0  0  0
    2.1434   -3.7125    0.0000 C   0  0  0  0  0  0  0  0  0  0  0  0
    1.4289   -3.3000    0.0000 C   0  0  0  0  0  0  0  0  0  0  0  0
    1.4289   -2.4750    0.0000 C   0  0  0  0  0  0  0  0  0  0  0  0
    0.7145   -2.0625    0.0000 Cl  0  0  0  0  0  0  0  0  0  0  0  0
    2.1434   -4.5375    0.0000 N   0  0  0  0  0  0  0  0  0  0  0  0
    2.8579   -4.9500    0.0000 C   0  0  0  0  0  0  0  0  0  0  0  0
    3.5724   -4.5375    0.0000 C   0  0  0  0  0  0  0  0  0  0  0  0
    4.2868   -4.9500    0.0000 C   0  0  0  0  0  0  0  0  0  0  0  0
    4.2868   -5.7750    0.0000 C   0  0  0  0  0  0  0  0  0  0  0  0
    5.0013   -6.1875    0.0000 Cl  0  0  0  0  0  0  0  0  0  0  0  0
    3.5724   -6.1875    0.0000 C   0  0  0  0  0  0  0  0  0  0  0  0
    2.8579   -5.7750    0.0000 C   0  0  0  0  0  0  0  0  0  0  0  0
    3.5724   -7.0125    0.0000 C   0  0  0  0  0  0  0  0  0  0  0  0
    2.8579   -7.4250    0.0000 O   0  0  0  0  0  0  0  0  0  0  0  0
    4.2868   -7.4250    0.0000 O   0  0  0  0  0  0  0  0  0  0  0  0
    1.4289   -4.9500    0.0000 S   0  0  0  0  0  0  0  0  0  0  0  0
    1.0164   -4.2355    0.0000 O   0  0  0  0  0  0  0  0  0  0  0  0
    1.8414   -5.6645    0.0000 O   0  0  0  0  0  0  0  0  0  0  0  0
    0.7145   -5.3625    0.0000 C   0  0  0  0  0  0  0  0  0  0  0  0
    0.7145   -6.1875    0.0000 C   0  0  0  0  0  0  0  0  0  0  0  0
   -0.0000   -6.6000    0.0000 C   0  0  0  0  0  0  0  0  0  0  0  0
   -0.7145   -6.1875    0.0000 C   0  0  0  0  0  0  0  0  0  0  0  0
   -1.4289   -6.6000    0.0000 C   0  0  0  0  0  0  0  0  0  0  0  0
   -0.7145   -5.3625    0.0000 C   0  0  0  0  0  0  0  0  0  0  0  0
   -0.0000   -4.9500    0.0000 C   0  0  0  0  0  0  0  0  0  0  0  0
  1  2  1  0  0  0  0
  2  3  1  0  0  0  0
  3  4  2  0  0  0  0
  4  5  1  0  0  0  0
  5  6  1  0  0  0  0
  5  7  2  0  0  0  0
  7  8  1  0  0  0  0
  8  9  2  0  0  0  0
  3  9  1  0  0  0  0
  9 10  1  0  0  0  0
  7 11  1  0  0  0  0
 11 12  1  0  0  0  0
 12 13  2  0  0  0  0
 13 14  1  0  0  0  0
 14 15  2  0  0  0  0
 15 16  1  0  0  0  0
 15 17  1  0  0  0  0
 17 18  2  0  0  0  0
 12 18  1  0  0  0  0
 17 19  1  0  0  0  0
 19 20  1  0  0  0  0
 19 21  2  0  0  0  0
 11 22  1  0  0  0  0
 22 23  2  0  0  0  0
 22 24  2  0  0  0  0
 22 25  1  0  0  0  0
 25 26  2  0  0  0  0
 26 27  1  0  0  0  0
 27 28  2  0  0  0  0
 28 29  1  0  0  0  0
 28 30  1  0  0  0  0
 30 31  2  0  0  0  0
 25 31  1  0  0  0  0
M  END
> <ID>
CPD_2552

$$$$
CPD_2557
  Mrv1822 09091914012D          

 18 19  0  0  0  0            999 V2000
   -2.8579    8.0036    0.0000 C   0  0  0  0  0  0  0  0  0  0  0  0
   -2.8579    7.1786    0.0000 N   0  0  0  0  0  0  0  0  0  0  0  0
   -2.1434    6.7661    0.0000 C   0  0  0  0  0  0  0  0  0  0  0  0
   -1.4289    7.1786    0.0000 O   0  0  0  0  0  0  0  0  0  0  0  0
   -2.1434    5.9411    0.0000 C   0  0  0  0  0  0  0  0  0  0  0  0
   -1.4289    5.5286    0.0000 C   0  0  0  0  0  0  0  0  0  0  0  0
   -1.4289    4.7036    0.0000 C   0  0  0  0  0  0  0  0  0  0  0  0
   -0.7145    4.2911    0.0000 N   0  0  0  0  0  0  0  0  0  0  0  0
   -0.7145    3.4661    0.0000 C   0  0  0  0  0  0  0  0  0  0  0  0
   -0.0470    2.9812    0.0000 C   0  0  0  0  0  0  0  0  0  0  0  0
   -0.3020    2.1965    0.0000 C   0  0  0  0  0  0  0  0  0  0  0  0
    0.1830    1.5291    0.0000 C   0  0  0  0  0  0  0  0  0  0  0  0
   -1.1270    2.1965    0.0000 C   0  0  0  0  0  0  0  0  0  0  0  0
   -1.3819    2.9812    0.0000 S   0  0  0  0  0  0  0  0  0  0  0  0
   -2.1434    4.2911    0.0000 C   0  0  0  0  0  0  0  0  0  0  0  0
   -2.8579    4.7036    0.0000 C   0  0  0  0  0  0  0  0  0  0  0  0
   -3.5724    4.2911    0.0000 F   0  0  0  0  0  0  0  0  0  0  0  0
   -2.8579    5.5286    0.0000 C   0  0  0  0  0  0  0  0  0  0  0  0
  1  2  1  0  0  0  0
  2  3  1  0  0  0  0
  3  4  2  0  0  0  0
  3  5  1  0  0  0  0
  5  6  2  0  0  0  0
  6  7  1  0  0  0  0
  7  8  1  0  0  0  0
  8  9  1  0  0  0  0
  9 10  2  0  0  0  0
 10 11  1  0  0  0  0
 11 12  1  0  0  0  0
 11 13  2  0  0  0  0
 13 14  1  0  0  0  0
  9 14  1  0  0  0  0
  7 15  2  0  0  0  0
 15 16  1  0  0  0  0
 16 17  1  0  0  0  0
 16 18  2  0  0  0  0
  5 18  1  0  0  0  0
M  END
> <ID>
CPD_2557

$$$$
CPD_2562
  Mrv1822 09091914012D          

 18 19  0  0  0  0            999 V2000
    2.7512    2.2902    0.0000 C   0  0  0  0  0  0  0  0  0  0  0  0
    2.7512    3.1152    0.0000 O   0  0  0  0  0  0  0  0  0  0  0  0
    3.4656    3.5277    0.0000 C   0  0  0  0  0  0  0  0  0  0  0  0
    3.4656    4.3527    0.0000 O   0  0  0  0  0  0  0  0  0  0  0  0
    4.1801    3.1152    0.0000 C   0  0  0  0  0  0  0  0  0  0  0  0
    4.8946    3.5277    0.0000 C   0  0  0  0  0  0  0  0  0  0  0  0
    5.6091    3.1152    0.0000 C   0  0  0  0  0  0  0  0  0  0  0  0
    5.6091    2.2902    0.0000 C   0  0  0  0  0  0  0  0  0  0  0  0
    4.8946    1.8777    0.0000 C   0  0  0  0  0  0  0  0  0  0  0  0
    4.8946    1.0527    0.0000 O   0  0  0  0  0  0  0  0  0  0  0  0
    4.1801    2.2902    0.0000 C   0  0  0  0  0  0  0  0  0  0  0  0
    3.4656    1.8777    0.0000 N   0  0  0  0  0  0  0  0  0  0  0  0
    3.4656    1.0527    0.0000 C   0  0  0  0  0  0  0  0  0  0  0  0
    4.1331    0.5678    0.0000 C   0  0  0  0  0  0  0  0  0  0  0  0
    3.8781   -0.2169    0.0000 C   0  0  0  0  0  0  0  0  0  0  0  0
    4.3631   -0.8843    0.0000 C   0  0  0  0  0  0  0  0  0  0  0  0
    3.0531   -0.2169    0.0000 C   0  0  0  0  0  0  0  0  0  0  0  0
    2.7982    0.5678    0.0000 S   0  0  0  0  0  0  0  0  0  0  0  0
  1  2  1  0  0  0  0
  2  3  1  0  0  0  0
  3  4  2  0  0  0  0
  3  5  1  0  0  0  0
  5  6  2  0  0  0  0
  6  7  1  0  0  0  0
  7  8  2  0  0  0  0
  8  9  1  0  0  0  0
  9 10  1  0  0  0  0
  9 11  2  0  0  0  0
  5 11  1  0  0  0  0
 11 12  1  0  0  0  0
 12 13  1  0  0  0  0
 13 14  2  0  0  0  0
 14 15  1  0  0  0  0
 15 16  1  0  0  0  0
 15 17  2  0  0  0  0
 17 18  1  0  0  0  0
 13 18  1  0  0  0  0
M  END
> <ID>
CPD_2562

$$$$
CPD_2567
  Mrv1822 09091914012D          

 28 30  0  0  0  0            999 V2000
   -4.0866   -6.6957    0.0000 C   0  0  0  0  0  0  0  0  0  0  0  0
   -3.7511   -5.9420    0.0000 C   0  0  0  0  0  0  0  0  0  0  0  0
   -4.1636   -5.2275    0.0000 C   0  0  0  0  0  0  0  0  0  0  0  0
   -3.6116   -4.6144    0.0000 S   0  0  0  0  0  0  0  0  0  0  0  0
   -2.8579   -4.9500    0.0000 C   0  0  0  0  0  0  0  0  0  0  0  0
   -2.1434   -4.5375    0.0000 N   0  0  0  0  0  0  0  0  0  0  0  0
   -2.1434   -3.7125    0.0000 C   0  0  0  0  0  0  0  0  0  0  0  0
   -2.8579   -3.3000    0.0000 C   0  0  0  0  0  0  0  0  0  0  0  0
   -2.8579   -2.4750    0.0000 C   0  0  0  0  0  0  0  0  0  0  0  0
   -2.1434   -2.0625    0.0000 C   0  0  0  0  0  0  0  0  0  0  0  0
   -1.4289   -2.4750    0.0000 C   0  0  0  0  0  0  0  0  0  0  0  0
   -1.4289   -3.3000    0.0000 C   0  0  0  0  0  0  0  0  0  0  0  0
   -0.7145   -2.0625    0.0000 C   0  0  0  0  0  0  0  0  0  0  0  0
   -0.7145   -1.2375    0.0000 O   0  0  0  0  0  0  0  0  0  0  0  0
    0.0000   -2.4750    0.0000 N   0  0  0  0  0  0  0  0  0  0  0  0
    0.7145   -2.0625    0.0000 C   0  0  0  0  0  0  0  0  0  0  0  0
    0.7145   -1.2375    0.0000 S   0  0  0  0  0  0  0  0  0  0  0  0
    1.4289   -2.4750    0.0000 N   0  0  0  0  0  0  0  0  0  0  0  0
    2.1434   -2.0625    0.0000 C   0  0  0  0  0  0  0  0  0  0  0  0
    2.1434   -1.2375    0.0000 C   0  0  0  0  0  0  0  0  0  0  0  0
    2.8579   -0.8250    0.0000 C   0  0  0  0  0  0  0  0  0  0  0  0
    3.5724   -1.2375    0.0000 C   0  0  0  0  0  0  0  0  0  0  0  0
    3.5724   -2.0625    0.0000 C   0  0  0  0  0  0  0  0  0  0  0  0
    2.8579   -2.4750    0.0000 C   0  0  0  0  0  0  0  0  0  0  0  0
    4.2868   -2.4750    0.0000 C   0  0  0  0  0  0  0  0  0  0  0  0
    5.0013   -2.0625    0.0000 O   0  0  0  0  0  0  0  0  0  0  0  0
    4.2868   -3.3000    0.0000 O   0  0  0  0  0  0  0  0  0  0  0  0
   -2.9441   -5.7705    0.0000 C   0  0  0  0  0  0  0  0  0  0  0  0
  1  2  1  0  0  0  0
  2  3  2  0  0  0  0
  3  4  1  0  0  0  0
  4  5  1  0  0  0  0
  5  6  1  0  0  0  0
  6  7  1  0  0  0  0
  7  8  2  0  0  0  0
  8  9  1  0  0  0  0
  9 10  2  0  0  0  0
 10 11  1  0  0  0  0
 11 12  2  0  0  0  0
  7 12  1  0  0  0  0
 11 13  1  0  0  0  0
 13 14  2  0  0  0  0
 13 15  1  0  0  0  0
 15 16  1  0  0  0  0
 16 17  2  0  0  0  0
 16 18  1  0  0  0  0
 18 19  1  0  0  0  0
 19 20  2  0  0  0  0
 20 21  1  0  0  0  0
 21 22  2  0  0  0  0
 22 23  1  0  0  0  0
 23 24  2  0  0  0  0
 19 24  1  0  0  0  0
 23 25  1  0  0  0  0
 25 26  1  0  0  0  0
 25 27  2  0  0  0  0
  5 28  2  0  0  0  0
  2 28  1  0  0  0  0
M  END
> <ID>
CPD_2567

$$$$
CPD_2572
  Mrv1822 09091914012D          

 33 37  0  0  0  0            999 V2000
    5.0645   -0.6422    0.0000 C   0  0  0  0  0  0  0  0  0  0  0  0
    4.2575   -0.8137    0.0000 O   0  0  0  0  0  0  0  0  0  0  0  0
    3.7054   -0.2006    0.0000 C   0  0  0  0  0  0  0  0  0  0  0  0
    2.8985   -0.3721    0.0000 C   0  0  0  0  0  0  0  0  0  0  0  0
    2.3464    0.2410    0.0000 C   0  0  0  0  0  0  0  0  0  0  0  0
    2.6014    1.0256    0.0000 C   0  0  0  0  0  0  0  0  0  0  0  0
    1.9339    1.5105    0.0000 N   0  0  0  0  0  0  0  0  0  0  0  0
    1.2665    1.0256    0.0000 C   0  0  0  0  0  0  0  0  0  0  0  0
    1.5214    0.2410    0.0000 C   0  0  0  0  0  0  0  0  0  0  0  0
    0.9694   -0.3721    0.0000 N   0  0  0  0  0  0  0  0  0  0  0  0
    0.1624   -0.2006    0.0000 C   0  0  0  0  0  0  0  0  0  0  0  0
   -0.0925    0.5840    0.0000 N   0  0  0  0  0  0  0  0  0  0  0  0
    0.4595    1.1971    0.0000 C   0  0  0  0  0  0  0  0  0  0  0  0
    0.2046    1.9817    0.0000 N   0  0  0  0  0  0  0  0  0  0  0  0
   -0.6024    2.1533    0.0000 C   0  0  0  0  0  0  0  0  0  0  0  0
   -0.8573    2.9379    0.0000 C   0  0  0  0  0  0  0  0  0  0  0  0
   -0.3053    3.5510    0.0000 N   0  0  0  0  0  0  0  0  0  0  0  0
    0.5017    3.3795    0.0000 C   0  0  0  0  0  0  0  0  0  0  0  0
    0.7566    2.5948    0.0000 C   0  0  0  0  0  0  0  0  0  0  0  0
   -0.5602    4.3356    0.0000 C   0  0  0  0  0  0  0  0  0  0  0  0
   -1.3672    4.5071    0.0000 C   0  0  0  0  0  0  0  0  0  0  0  0
   -1.9192    3.8940    0.0000 C   0  0  0  0  0  0  0  0  0  0  0  0
   -1.6221    5.2918    0.0000 C   0  0  0  0  0  0  0  0  0  0  0  0
   -1.0701    5.9049    0.0000 C   0  0  0  0  0  0  0  0  0  0  0  0
   -1.3250    6.6895    0.0000 N   0  0  0  0  0  0  0  0  0  0  0  0
   -0.2631    5.7333    0.0000 C   0  0  0  0  0  0  0  0  0  0  0  0
   -0.0082    4.9487    0.0000 C   0  0  0  0  0  0  0  0  0  0  0  0
    0.7988    4.7772    0.0000 C   0  0  0  0  0  0  0  0  0  0  0  0
    1.6058    4.6056    0.0000 F   0  0  0  0  0  0  0  0  0  0  0  0
    0.6273    3.9702    0.0000 F   0  0  0  0  0  0  0  0  0  0  0  0
    0.9703    5.5841    0.0000 F   0  0  0  0  0  0  0  0  0  0  0  0
    3.4084    1.1971    0.0000 C   0  0  0  0  0  0  0  0  0  0  0  0
    3.9604    0.5840    0.0000 C   0  0  0  0  0  0  0  0  0  0  0  0
  1  2  1  0  0  0  0
  2  3  1  0  0  0  0
  3  4  2  0  0  0  0
  4  5  1  0  0  0  0
  5  6  2  0  0  0  0
  6  7  1  0  0  0  0
  7  8  1  0  0  0  0
  8  9  2  0  0  0  0
  5  9  1  0  0  0  0
  9 10  1  0  0  0  0
 10 11  2  0  0  0  0
 11 12  1  0  0  0  0
 12 13  2  0  0  0  0
  8 13  1  0  0  0  0
 13 14  1  0  0  0  0
 14 15  1  0  0  0  0
 15 16  1  0  0  0  0
 16 17  1  0  0  0  0
 17 18  1  0  0  0  0
 18 19  1  0  0  0  0
 14 19  1  0  0  0  0
 17 20  1  0  0  0  0
 20 21  2  0  0  0  0
 21 22  1  0  0  0  0
 21 23  1  0  0  0  0
 23 24  2  0  0  0  0
 24 25  1  0  0  0  0
 24 26  1  0  0  0  0
 26 27  2  0  0  0  0
 20 27  1  0  0  0  0
 27 28  1  0  0  0  0
 28 29  1  0  0  0  0
 28 30  1  0  0  0  0
 28 31  1  0  0  0  0
  6 32  1  0  0  0  0
 32 33  2  0  0  0  0
  3 33  1  0  0  0  0
M  END
> <ID>
CPD_2572

$$$$
CPD_2577
  Mrv1822 09091914012D          

 23 25  0  0  0  0            999 V2000
    4.0776    2.3542    0.0000 C   0  0  0  0  0  0  0  0  0  0  0  0
    3.3631    1.9417    0.0000 C   0  0  0  0  0  0  0  0  0  0  0  0
    3.3631    1.1167    0.0000 O   0  0  0  0  0  0  0  0  0  0  0  0
    2.6486    0.7042    0.0000 C   0  0  0  0  0  0  0  0  0  0  0  0
    2.6486   -0.1208    0.0000 C   0  0  0  0  0  0  0  0  0  0  0  0
    3.3631   -0.5333    0.0000 Br  0  0  0  0  0  0  0  0  0  0  0  0
    1.9341   -0.5333    0.0000 C   0  0  0  0  0  0  0  0  0  0  0  0
    1.2197   -0.1208    0.0000 C   0  0  0  0  0  0  0  0  0  0  0  0
    1.2197    0.7042    0.0000 C   0  0  0  0  0  0  0  0  0  0  0  0
    1.9341    1.1167    0.0000 C   0  0  0  0  0  0  0  0  0  0  0  0
    1.9341   -1.3583    0.0000 N   0  0  0  0  0  0  0  0  0  0  0  0
    2.5175   -1.9417    0.0000 C   0  0  0  0  0  0  0  0  0  0  0  0
    1.9341   -2.5250    0.0000 C   0  0  0  0  0  0  0  0  0  0  0  0
    1.3508   -1.9417    0.0000 C   0  0  0  0  0  0  0  0  0  0  0  0
    1.9341   -3.3500    0.0000 O   0  0  0  0  0  0  0  0  0  0  0  0
    1.2197   -3.7625    0.0000 C   0  0  0  0  0  0  0  0  0  0  0  0
    1.2197   -4.5875    0.0000 C   0  0  0  0  0  0  0  0  0  0  0  0
    0.5052   -5.0000    0.0000 C   0  0  0  0  0  0  0  0  0  0  0  0
    0.5052   -5.8250    0.0000 F   0  0  0  0  0  0  0  0  0  0  0  0
   -0.2093   -4.5875    0.0000 C   0  0  0  0  0  0  0  0  0  0  0  0
   -0.9237   -5.0000    0.0000 F   0  0  0  0  0  0  0  0  0  0  0  0
   -0.2093   -3.7625    0.0000 C   0  0  0  0  0  0  0  0  0  0  0  0
    0.5052   -3.3500    0.0000 C   0  0  0  0  0  0  0  0  0  0  0  0
  1  2  1  0  0  0  0
  2  3  1  0  0  0  0
  3  4  1  0  0  0  0
  4  5  2  0  0  0  0
  5  6  1  0  0  0  0
  5  7  1  0  0  0  0
  7  8  2  0  0  0  0
  8  9  1  0  0  0  0
  9 10  2  0  0  0  0
  4 10  1  0  0  0  0
  7 11  1  0  0  0  0
 11 12  1  0  0  0  0
 12 13  1  0  0  0  0
 13 14  1  0  0  0  0
 11 14  1  0  0  0  0
 13 15  1  0  0  0  0
 15 16  1  0  0  0  0
 16 17  2  0  0  0  0
 17 18  1  0  0  0  0
 18 19  1  0  0  0  0
 18 20  2  0  0  0  0
 20 21  1  0  0  0  0
 20 22  1  0  0  0  0
 22 23  2  0  0  0  0
 16 23  1  0  0  0  0
M  END
> <ID>
CPD_2577

$$$$
CPD_2582
  Mrv1822 09091914012D          

 31 34  0  0  0  0            999 V2000
    3.5724    2.8875    0.0000 C   0  0  0  0  0  0  0  0  0  0  0  0
    2.8579    2.4750    0.0000 C   0  0  0  0  0  0  0  0  0  0  0  0
    2.4454    3.1895    0.0000 C   0  0  0  0  0  0  0  0  0  0  0  0
    3.2704    1.7605    0.0000 C   0  0  0  0  0  0  0  0  0  0  0  0
    2.1434    2.0625    0.0000 O   0  0  0  0  0  0  0  0  0  0  0  0
    2.1434    1.2375    0.0000 C   0  0  0  0  0  0  0  0  0  0  0  0
    2.8579    0.8250    0.0000 O   0  0  0  0  0  0  0  0  0  0  0  0
    1.4289    0.8250    0.0000 N   0  0  0  0  0  0  0  0  0  0  0  0
    1.4289    0.0000    0.0000 C   0  0  0  0  0  0  0  0  0  0  0  0
    2.1434   -0.4125    0.0000 C   0  0  0  0  0  0  0  0  0  0  0  0
    2.8579    0.0000    0.0000 O   0  0  0  0  0  0  0  0  0  0  0  0
    3.5724   -0.4125    0.0000 C   0  0  0  0  0  0  0  0  0  0  0  0
    3.5724   -1.2375    0.0000 C   0  0  0  0  0  0  0  0  0  0  0  0
    2.8579   -1.6500    0.0000 C   0  0  0  0  0  0  0  0  0  0  0  0
    2.1434   -1.2375    0.0000 C   0  0  0  0  0  0  0  0  0  0  0  0
    1.4289   -1.6500    0.0000 N   0  0  0  0  0  0  0  0  0  0  0  0
    0.7145   -1.2375    0.0000 C   0  0  0  0  0  0  0  0  0  0  0  0
    0.7145   -0.4125    0.0000 C   0  0  0  0  0  0  0  0  0  0  0  0
    0.0000   -1.6500    0.0000 N   0  0  0  0  0  0  0  0  0  0  0  0
   -0.2135   -2.4469    0.0000 C   0  0  0  0  0  0  0  0  0  0  0  0
   -1.0104   -2.2334    0.0000 C   0  0  0  0  0  0  0  0  0  0  0  0
   -0.7969   -1.4365    0.0000 C   0  0  0  0  0  0  0  0  0  0  0  0
   -1.7249   -2.6459    0.0000 O   0  0  0  0  0  0  0  0  0  0  0  0
   -2.4394   -2.2334    0.0000 C   0  0  0  0  0  0  0  0  0  0  0  0
   -3.1538   -2.6459    0.0000 C   0  0  0  0  0  0  0  0  0  0  0  0
   -3.8683   -2.2334    0.0000 C   0  0  0  0  0  0  0  0  0  0  0  0
   -4.5828   -2.6459    0.0000 F   0  0  0  0  0  0  0  0  0  0  0  0
   -3.8683   -1.4084    0.0000 C   0  0  0  0  0  0  0  0  0  0  0  0
   -4.5828   -0.9959    0.0000 F   0  0  0  0  0  0  0  0  0  0  0  0
   -3.1538   -0.9959    0.0000 C   0  0  0  0  0  0  0  0  0  0  0  0
   -2.4394   -1.4084    0.0000 C   0  0  0  0  0  0  0  0  0  0  0  0
  1  2  1  0  0  0  0
  2  3  1  0  0  0  0
  2  4  1  0  0  0  0
  2  5  1  0  0  0  0
  5  6  1  0  0  0  0
  6  7  2  0  0  0  0
  6  8  1  0  0  0  0
  8  9  1  0  0  0  0
  9 10  2  0  0  0  0
 10 11  1  0  0  0  0
 11 12  1  0  0  0  0
 12 13  1  0  0  0  0
 13 14  1  0  0  0  0
 14 15  1  0  0  0  0
 10 15  1  0  0  0  0
 15 16  2  0  0  0  0
 16 17  1  0  0  0  0
 17 18  2  0  0  0  0
  9 18  1  0  0  0  0
 17 19  1  0  0  0  0
 19 20  1  0  0  0  0
 20 21  1  0  0  0  0
 21 22  1  0  0  0  0
 19 22  1  0  0  0  0
 21 23  1  0  0  0  0
 23 24  1  0  0  0  0
 24 25  2  0  0  0  0
 25 26  1  0  0  0  0
 26 27  1  0  0  0  0
 26 28  2  0  0  0  0
 28 29  1  0  0  0  0
 28 30  1  0  0  0  0
 30 31  2  0  0  0  0
 24 31  1  0  0  0  0
M  END
> <ID>
CPD_2582

$$$$
CPD_2587
  Mrv1822 09091914012D          

 26 28  0  0  0  0            999 V2000
    3.3631    1.9417    0.0000 C   0  0  0  0  0  0  0  0  0  0  0  0
    3.3631    1.1167    0.0000 O   0  0  0  0  0  0  0  0  0  0  0  0
    2.6486    0.7042    0.0000 C   0  0  0  0  0  0  0  0  0  0  0  0
    2.6486   -0.1208    0.0000 C   0  0  0  0  0  0  0  0  0  0  0  0
    1.9341   -0.5333    0.0000 C   0  0  0  0  0  0  0  0  0  0  0  0
    1.9341   -1.3583    0.0000 N   0  0  0  0  0  0  0  0  0  0  0  0
    2.5175   -1.9417    0.0000 C   0  0  0  0  0  0  0  0  0  0  0  0
    1.9341   -2.5250    0.0000 C   0  0  0  0  0  0  0  0  0  0  0  0
    1.3508   -1.9417    0.0000 C   0  0  0  0  0  0  0  0  0  0  0  0
    1.9341   -3.3500    0.0000 O   0  0  0  0  0  0  0  0  0  0  0  0
    1.2197   -3.7625    0.0000 C   0  0  0  0  0  0  0  0  0  0  0  0
    1.2197   -4.5875    0.0000 C   0  0  0  0  0  0  0  0  0  0  0  0
    0.5052   -5.0000    0.0000 C   0  0  0  0  0  0  0  0  0  0  0  0
    0.5052   -5.8250    0.0000 F   0  0  0  0  0  0  0  0  0  0  0  0
   -0.2093   -4.5875    0.0000 C   0  0  0  0  0  0  0  0  0  0  0  0
   -0.9237   -5.0000    0.0000 F   0  0  0  0  0  0  0  0  0  0  0  0
   -0.2093   -3.7625    0.0000 C   0  0  0  0  0  0  0  0  0  0  0  0
    0.5052   -3.3500    0.0000 C   0  0  0  0  0  0  0  0  0  0  0  0
    1.2197   -0.1208    0.0000 C   0  0  0  0  0  0  0  0  0  0  0  0
    0.5052   -0.5333    0.0000 O   0  0  0  0  0  0  0  0  0  0  0  0
   -0.2093   -0.1208    0.0000 C   0  0  0  0  0  0  0  0  0  0  0  0
    0.2032    0.5937    0.0000 F   0  0  0  0  0  0  0  0  0  0  0  0
   -0.6218   -0.8353    0.0000 F   0  0  0  0  0  0  0  0  0  0  0  0
   -0.9237    0.2917    0.0000 F   0  0  0  0  0  0  0  0  0  0  0  0
    1.2197    0.7042    0.0000 C   0  0  0  0  0  0  0  0  0  0  0  0
    1.9341    1.1167    0.0000 C   0  0  0  0  0  0  0  0  0  0  0  0
  1  2  1  0  0  0  0
  2  3  1  0  0  0  0
  3  4  2  0  0  0  0
  4  5  1  0  0  0  0
  5  6  1  0  0  0  0
  6  7  1  0  0  0  0
  7  8  1  0  0  0  0
  8  9  1  0  0  0  0
  6  9  1  0  0  0  0
  8 10  1  0  0  0  0
 10 11  1  0  0  0  0
 11 12  2  0  0  0  0
 12 13  1  0  0  0  0
 13 14  1  0  0  0  0
 13 15  2  0  0  0  0
 15 16  1  0  0  0  0
 15 17  1  0  0  0  0
 17 18  2  0  0  0  0
 11 18  1  0  0  0  0
  5 19  2  0  0  0  0
 19 20  1  0  0  0  0
 20 21  1  0  0  0  0
 21 22  1  0  0  0  0
 21 23  1  0  0  0  0
 21 24  1  0  0  0  0
 19 25  1  0  0  0  0
 25 26  2  0  0  0  0
  3 26  1  0  0  0  0
M  END
> <ID>
CPD_2587

$$$$
CPD_2592
  Mrv1822 09091914012D          

 25 27  0  0  0  0            999 V2000
    4.6609   -2.8375    0.0000 C   0  0  0  0  0  0  0  0  0  0  0  0
    4.0776   -3.4208    0.0000 C   0  0  0  0  0  0  0  0  0  0  0  0
    3.4942   -2.8375    0.0000 F   0  0  0  0  0  0  0  0  0  0  0  0
    4.6609   -4.0042    0.0000 C   0  0  0  0  0  0  0  0  0  0  0  0
    4.0776   -4.5875    0.0000 N   0  0  0  0  0  0  0  0  0  0  0  0
    3.4942   -4.0042    0.0000 C   0  0  0  0  0  0  0  0  0  0  0  0
    4.0776   -5.4125    0.0000 C   0  0  0  0  0  0  0  0  0  0  0  0
    4.7920   -5.8250    0.0000 C   0  0  0  0  0  0  0  0  0  0  0  0
    4.7920   -6.6500    0.0000 C   0  0  0  0  0  0  0  0  0  0  0  0
    4.0776   -7.0625    0.0000 C   0  0  0  0  0  0  0  0  0  0  0  0
    4.0776   -7.8875    0.0000 C   0  0  0  0  0  0  0  0  0  0  0  0
    3.3631   -8.3000    0.0000 S   0  0  0  0  0  0  0  0  0  0  0  0
    2.9506   -7.5856    0.0000 O   0  0  0  0  0  0  0  0  0  0  0  0
    3.7756   -9.0145    0.0000 O   0  0  0  0  0  0  0  0  0  0  0  0
    2.6486   -8.7125    0.0000 N   0  0  0  0  0  0  0  0  0  0  0  0
    2.6486   -9.5375    0.0000 C   0  0  0  0  0  0  0  0  0  0  0  0
    1.9341   -9.9500    0.0000 C   0  0  0  0  0  0  0  0  0  0  0  0
    1.2197   -9.5375    0.0000 C   0  0  0  0  0  0  0  0  0  0  0  0
    1.2197   -8.7125    0.0000 C   0  0  0  0  0  0  0  0  0  0  0  0
    1.9341   -8.3000    0.0000 C   0  0  0  0  0  0  0  0  0  0  0  0
    0.5052   -9.9500    0.0000 C   0  0  0  0  0  0  0  0  0  0  0  0
    0.5052  -10.7750    0.0000 O   0  0  0  0  0  0  0  0  0  0  0  0
   -0.2093   -9.5375    0.0000 O   0  0  0  0  0  0  0  0  0  0  0  0
    3.3631   -6.6500    0.0000 C   0  0  0  0  0  0  0  0  0  0  0  0
    3.3631   -5.8250    0.0000 C   0  0  0  0  0  0  0  0  0  0  0  0
  1  2  1  0  0  0  0
  2  3  1  0  0  0  0
  2  4  1  0  0  0  0
  4  5  1  0  0  0  0
  5  6  1  0  0  0  0
  2  6  1  0  0  0  0
  5  7  1  0  0  0  0
  7  8  2  0  0  0  0
  8  9  1  0  0  0  0
  9 10  2  0  0  0  0
 10 11  1  0  0  0  0
 11 12  1  0  0  0  0
 12 13  2  0  0  0  0
 12 14  2  0  0  0  0
 12 15  1  0  0  0  0
 15 16  1  0  0  0  0
 16 17  1  0  0  0  0
 17 18  1  0  0  0  0
 18 19  1  0  0  0  0
 19 20  1  0  0  0  0
 15 20  1  0  0  0  0
 18 21  1  0  0  0  0
 21 22  1  0  0  0  0
 21 23  2  0  0  0  0
 10 24  1  0  0  0  0
 24 25  2  0  0  0  0
  7 25  1  0  0  0  0
M  END
> <ID>
CPD_2592

$$$$
CPD_2597
  Mrv1822 09091914012D          

 29 31  0  0  0  0            999 V2000
    0.5834    4.2251    0.0000 C   0  0  0  0  0  0  0  0  0  0  0  0
    0.0000    3.6417    0.0000 C   0  0  0  0  0  0  0  0  0  0  0  0
   -0.5834    4.2251    0.0000 F   0  0  0  0  0  0  0  0  0  0  0  0
    0.5834    3.0584    0.0000 C   0  0  0  0  0  0  0  0  0  0  0  0
    0.0000    2.4750    0.0000 N   0  0  0  0  0  0  0  0  0  0  0  0
   -0.5834    3.0584    0.0000 C   0  0  0  0  0  0  0  0  0  0  0  0
    0.0000    1.6500    0.0000 C   0  0  0  0  0  0  0  0  0  0  0  0
    0.7145    1.2375    0.0000 C   0  0  0  0  0  0  0  0  0  0  0  0
    0.7145    0.4125    0.0000 C   0  0  0  0  0  0  0  0  0  0  0  0
    0.0000   -0.0000    0.0000 C   0  0  0  0  0  0  0  0  0  0  0  0
   -0.7145    0.4125    0.0000 C   0  0  0  0  0  0  0  0  0  0  0  0
   -0.7145    1.2375    0.0000 C   0  0  0  0  0  0  0  0  0  0  0  0
    0.0000   -0.8250    0.0000 S   0  0  0  0  0  0  0  0  0  0  0  0
    0.8250   -0.8250    0.0000 O   0  0  0  0  0  0  0  0  0  0  0  0
   -0.8250   -0.8250    0.0000 O   0  0  0  0  0  0  0  0  0  0  0  0
    0.0000   -1.6500    0.0000 N   0  0  0  0  0  0  0  0  0  0  0  0
    0.7145   -2.0625    0.0000 C   0  0  0  0  0  0  0  0  0  0  0  0
    1.4289   -1.6500    0.0000 C   0  0  0  0  0  0  0  0  0  0  0  0
    2.1434   -2.0625    0.0000 O   0  0  0  0  0  0  0  0  0  0  0  0
    1.4289   -0.8250    0.0000 O   0  0  0  0  0  0  0  0  0  0  0  0
   -0.7145   -2.0625    0.0000 C   0  0  0  0  0  0  0  0  0  0  0  0
   -0.7145   -2.8875    0.0000 C   0  0  0  0  0  0  0  0  0  0  0  0
    0.0000   -3.3000    0.0000 C   0  0  0  0  0  0  0  0  0  0  0  0
    0.0000   -4.1250    0.0000 C   0  0  0  0  0  0  0  0  0  0  0  0
   -0.7145   -4.5375    0.0000 C   0  0  0  0  0  0  0  0  0  0  0  0
   -0.7145   -5.3625    0.0000 Cl  0  0  0  0  0  0  0  0  0  0  0  0
   -1.4289   -4.1250    0.0000 C   0  0  0  0  0  0  0  0  0  0  0  0
   -1.4289   -3.3000    0.0000 C   0  0  0  0  0  0  0  0  0  0  0  0
   -2.1434   -2.8875    0.0000 Cl  0  0  0  0  0  0  0  0  0  0  0  0
  1  2  1  0  0  0  0
  2  3  1  0  0  0  0
  2  4  1  0  0  0  0
  4  5  1  0  0  0  0
  5  6  1  0  0  0  0
  2  6  1  0  0  0  0
  5  7  1  0  0  0  0
  7  8  2  0  0  0  0
  8  9  1  0  0  0  0
  9 10  2  0  0  0  0
 10 11  1  0  0  0  0
 11 12  2  0  0  0  0
  7 12  1  0  0  0  0
 10 13  1  0  0  0  0
 13 14  2  0  0  0  0
 13 15  2  0  0  0  0
 13 16  1  0  0  0  0
 16 17  1  0  0  0  0
 17 18  1  0  0  0  0
 18 19  1  0  0  0  0
 18 20  2  0  0  0  0
 16 21  1  0  0  0  0
 21 22  1  0  0  0  0
 22 23  2  0  0  0  0
 23 24  1  0  0  0  0
 24 25  2  0  0  0  0
 25 26  1  0  0  0  0
 25 27  1  0  0  0  0
 27 28  2  0  0  0  0
 22 28  1  0  0  0  0
 28 29  1  0  0  0  0
M  END
> <ID>
CPD_2597

$$$$
CPD_2602
  Mrv1822 09091914012D          

 18 20  0  0  0  0            999 V2000
    1.2978   -0.6541    0.0000 C   0  0  0  0  0  0  0  0  0  0  0  0
    0.7145   -1.2375    0.0000 C   0  0  0  0  0  0  0  0  0  0  0  0
    0.1311   -0.6541    0.0000 F   0  0  0  0  0  0  0  0  0  0  0  0
    1.2978   -1.8209    0.0000 C   0  0  0  0  0  0  0  0  0  0  0  0
    0.7145   -2.4042    0.0000 N   0  0  0  0  0  0  0  0  0  0  0  0
    0.1311   -1.8209    0.0000 C   0  0  0  0  0  0  0  0  0  0  0  0
    0.7145   -3.2292    0.0000 C   0  0  0  0  0  0  0  0  0  0  0  0
    1.4289   -3.6417    0.0000 C   0  0  0  0  0  0  0  0  0  0  0  0
    1.4289   -4.4667    0.0000 C   0  0  0  0  0  0  0  0  0  0  0  0
    0.7145   -4.8792    0.0000 C   0  0  0  0  0  0  0  0  0  0  0  0
    0.0000   -4.4667    0.0000 C   0  0  0  0  0  0  0  0  0  0  0  0
   -0.7145   -4.8792    0.0000 O   0  0  0  0  0  0  0  0  0  0  0  0
   -1.4289   -4.4667    0.0000 C   0  0  0  0  0  0  0  0  0  0  0  0
   -2.1826   -4.8023    0.0000 C   0  0  0  0  0  0  0  0  0  0  0  0
   -2.7346   -4.1892    0.0000 C   0  0  0  0  0  0  0  0  0  0  0  0
   -2.3221   -3.4747    0.0000 N   0  0  0  0  0  0  0  0  0  0  0  0
   -1.5152   -3.6462    0.0000 C   0  0  0  0  0  0  0  0  0  0  0  0
    0.0000   -3.6417    0.0000 N   0  0  0  0  0  0  0  0  0  0  0  0
  1  2  1  0  0  0  0
  2  3  1  0  0  0  0
  2  4  1  0  0  0  0
  4  5  1  0  0  0  0
  5  6  1  0  0  0  0
  2  6  1  0  0  0  0
  5  7  1  0  0  0  0
  7  8  2  0  0  0  0
  8  9  1  0  0  0  0
  9 10  2  0  0  0  0
 10 11  1  0  0  0  0
 11 12  1  0  0  0  0
 12 13  1  0  0  0  0
 13 14  1  0  0  0  0
 14 15  1  0  0  0  0
 15 16  1  0  0  0  0
 16 17  1  0  0  0  0
 13 17  1  0  0  0  0
 11 18  2  0  0  0  0
  7 18  1  0  0  0  0
M  END
> <ID>
CPD_2602

$$$$
CPD_2607
  Mrv1822 09091914012D          

 32 34  0  0  0  0            999 V2000
    3.5724   -2.0625    0.0000 C   0  0  0  0  0  0  0  0  0  0  0  0
    3.5724   -2.8875    0.0000 C   0  0  0  0  0  0  0  0  0  0  0  0
    2.7474   -2.8875    0.0000 C   0  0  0  0  0  0  0  0  0  0  0  0
    4.3974   -2.8875    0.0000 C   0  0  0  0  0  0  0  0  0  0  0  0
    3.5724   -3.7125    0.0000 O   0  0  0  0  0  0  0  0  0  0  0  0
    2.8579   -4.1250    0.0000 C   0  0  0  0  0  0  0  0  0  0  0  0
    2.1434   -3.7125    0.0000 O   0  0  0  0  0  0  0  0  0  0  0  0
    2.8579   -4.9500    0.0000 N   0  0  0  0  0  0  0  0  0  0  0  0
    3.5724   -5.3625    0.0000 C   0  0  0  0  0  0  0  0  0  0  0  0
    3.5724   -6.1875    0.0000 C   0  0  0  0  0  0  0  0  0  0  0  0
    2.8579   -6.6000    0.0000 C   0  0  0  0  0  0  0  0  0  0  0  0
    2.1434   -6.1875    0.0000 C   0  0  0  0  0  0  0  0  0  0  0  0
    1.4289   -6.6000    0.0000 C   0  0  0  0  0  0  0  0  0  0  0  0
    1.4289   -7.4250    0.0000 C   0  0  0  0  0  0  0  0  0  0  0  0
    0.7145   -7.8375    0.0000 C   0  0  0  0  0  0  0  0  0  0  0  0
    0.7145   -8.6625    0.0000 C   0  0  0  0  0  0  0  0  0  0  0  0
    0.0000   -9.0750    0.0000 C   0  0  0  0  0  0  0  0  0  0  0  0
   -0.0000   -9.9000    0.0000 N   0  0  0  0  0  0  0  0  0  0  0  0
   -0.7145  -10.3125    0.0000 C   0  0  0  0  0  0  0  0  0  0  0  0
   -0.7145  -11.1375    0.0000 C   0  0  0  0  0  0  0  0  0  0  0  0
   -1.4289  -11.5500    0.0000 C   0  0  0  0  0  0  0  0  0  0  0  0
   -2.1434  -11.1375    0.0000 C   0  0  0  0  0  0  0  0  0  0  0  0
   -2.8579  -11.5500    0.0000 C   0  0  0  0  0  0  0  0  0  0  0  0
   -3.5724  -11.1375    0.0000 C   0  0  0  0  0  0  0  0  0  0  0  0
   -4.2868  -11.5500    0.0000 O   0  0  0  0  0  0  0  0  0  0  0  0
   -3.5724  -10.3125    0.0000 O   0  0  0  0  0  0  0  0  0  0  0  0
   -2.1434  -10.3125    0.0000 C   0  0  0  0  0  0  0  0  0  0  0  0
   -1.4289   -9.9000    0.0000 C   0  0  0  0  0  0  0  0  0  0  0  0
   -0.7145   -8.6625    0.0000 N   0  0  0  0  0  0  0  0  0  0  0  0
   -0.7145   -7.8375    0.0000 C   0  0  0  0  0  0  0  0  0  0  0  0
    0.0000   -7.4250    0.0000 C   0  0  0  0  0  0  0  0  0  0  0  0
    2.1434   -5.3625    0.0000 C   0  0  0  0  0  0  0  0  0  0  0  0
  1  2  1  0  0  0  0
  2  3  1  0  0  0  0
  2  4  1  0  0  0  0
  2  5  1  0  0  0  0
  5  6  1  0  0  0  0
  6  7  2  0  0  0  0
  6  8  1  0  0  0  0
  8  9  1  0  0  0  0
  9 10  1  0  0  0  0
 10 11  1  0  0  0  0
 11 12  1  0  0  0  0
 12 13  1  0  0  0  0
 13 14  1  0  0  0  0
 14 15  1  0  0  0  0
 15 16  2  0  0  0  0
 16 17  1  0  0  0  0
 17 18  1  0  0  0  0
 18 19  1  0  0  0  0
 19 20  2  0  0  0  0
 20 21  1  0  0  0  0
 21 22  2  0  0  0  0
 22 23  1  0  0  0  0
 23 24  1  0  0  0  0
 24 25  1  0  0  0  0
 24 26  2  0  0  0  0
 22 27  1  0  0  0  0
 27 28  2  0  0  0  0
 19 28  1  0  0  0  0
 17 29  2  0  0  0  0
 29 30  1  0  0  0  0
 30 31  2  0  0  0  0
 15 31  1  0  0  0  0
 12 32  1  0  0  0  0
  8 32  1  0  0  0  0
M  END
> <ID>
CPD_2607

$$$$
CPD_2612
  Mrv1822 09091914012D          

 32 34  0  0  0  0            999 V2000
   -0.7145   -2.0625    0.0000 C   0  0  0  0  0  0  0  0  0  0  0  0
    0.0000   -2.4750    0.0000 C   0  0  0  0  0  0  0  0  0  0  0  0
    0.0000   -3.3000    0.0000 C   0  0  0  0  0  0  0  0  0  0  0  0
    0.7145   -3.7125    0.0000 O   0  0  0  0  0  0  0  0  0  0  0  0
    0.7145   -4.5375    0.0000 C   0  0  0  0  0  0  0  0  0  0  0  0
    1.4289   -4.9500    0.0000 C   0  0  0  0  0  0  0  0  0  0  0  0
    2.1434   -4.5375    0.0000 N   0  0  0  0  0  0  0  0  0  0  0  0
    2.1434   -3.7125    0.0000 C   0  0  0  0  0  0  0  0  0  0  0  0
    1.4289   -3.3000    0.0000 C   0  0  0  0  0  0  0  0  0  0  0  0
    1.4289   -2.4750    0.0000 C   0  0  0  0  0  0  0  0  0  0  0  0
    0.7145   -2.0625    0.0000 Cl  0  0  0  0  0  0  0  0  0  0  0  0
    2.1434   -2.0625    0.0000 C   0  0  0  0  0  0  0  0  0  0  0  0
    2.8579   -2.4750    0.0000 C   0  0  0  0  0  0  0  0  0  0  0  0
    2.8579   -3.3000    0.0000 C   0  0  0  0  0  0  0  0  0  0  0  0
    3.5724   -3.7125    0.0000 C   0  0  0  0  0  0  0  0  0  0  0  0
    4.2868   -3.3000    0.0000 S   0  0  0  0  0  0  0  0  0  0  0  0
    4.6993   -4.0145    0.0000 O   0  0  0  0  0  0  0  0  0  0  0  0
    3.8743   -2.5855    0.0000 O   0  0  0  0  0  0  0  0  0  0  0  0
    5.0013   -2.8875    0.0000 N   0  0  0  0  0  0  0  0  0  0  0  0
    5.0013   -2.0625    0.0000 C   0  0  0  0  0  0  0  0  0  0  0  0
    5.7158   -1.6500    0.0000 C   0  0  0  0  0  0  0  0  0  0  0  0
    6.4302   -2.0625    0.0000 C   0  0  0  0  0  0  0  0  0  0  0  0
    6.4302   -2.8875    0.0000 C   0  0  0  0  0  0  0  0  0  0  0  0
    5.7158   -3.3000    0.0000 C   0  0  0  0  0  0  0  0  0  0  0  0
    7.1447   -1.6500    0.0000 C   0  0  0  0  0  0  0  0  0  0  0  0
    7.1447   -0.8250    0.0000 O   0  0  0  0  0  0  0  0  0  0  0  0
    7.8592   -2.0625    0.0000 O   0  0  0  0  0  0  0  0  0  0  0  0
    1.4289   -5.7750    0.0000 C   0  0  0  0  0  0  0  0  0  0  0  0
    0.7145   -6.1875    0.0000 C   0  0  0  0  0  0  0  0  0  0  0  0
    0.0000   -5.7750    0.0000 C   0  0  0  0  0  0  0  0  0  0  0  0
    0.0000   -4.9500    0.0000 C   0  0  0  0  0  0  0  0  0  0  0  0
   -0.7145   -4.5375    0.0000 C   0  0  0  0  0  0  0  0  0  0  0  0
  1  2  1  0  0  0  0
  2  3  1  0  0  0  0
  3  4  1  0  0  0  0
  4  5  1  0  0  0  0
  5  6  2  0  0  0  0
  6  7  1  0  0  0  0
  7  8  1  0  0  0  0
  8  9  2  0  0  0  0
  9 10  1  0  0  0  0
 10 11  1  0  0  0  0
 10 12  2  0  0  0  0
 12 13  1  0  0  0  0
 13 14  2  0  0  0  0
  8 14  1  0  0  0  0
 14 15  1  0  0  0  0
 15 16  1  0  0  0  0
 16 17  2  0  0  0  0
 16 18  2  0  0  0  0
 16 19  1  0  0  0  0
 19 20  1  0  0  0  0
 20 21  1  0  0  0  0
 21 22  1  0  0  0  0
 22 23  1  0  0  0  0
 23 24  1  0  0  0  0
 19 24  1  0  0  0  0
 22 25  1  0  0  0  0
 25 26  1  0  0  0  0
 25 27  2  0  0  0  0
  6 28  1  0  0  0  0
 28 29  2  0  0  0  0
 29 30  1  0  0  0  0
 30 31  2  0  0  0  0
  5 31  1  0  0  0  0
 31 32  1  0  0  0  0
M  END
> <ID>
CPD_2612

$$$$
CPD_2617
  Mrv1822 09091914012D          

 30 33  0  0  0  0            999 V2000
    4.3721    3.9136    0.0000 O   0  0  0  0  0  0  0  0  0  0  0  0
    4.3721    3.0886    0.0000 C   0  0  0  0  0  0  0  0  0  0  0  0
    5.0866    2.6761    0.0000 C   0  0  0  0  0  0  0  0  0  0  0  0
    5.0866    1.8511    0.0000 C   0  0  0  0  0  0  0  0  0  0  0  0
    5.7540    1.3662    0.0000 C   0  0  0  0  0  0  0  0  0  0  0  0
    5.4991    0.5815    0.0000 C   0  0  0  0  0  0  0  0  0  0  0  0
    4.6741    0.5815    0.0000 N   0  0  0  0  0  0  0  0  0  0  0  0
    4.4191    1.3662    0.0000 N   0  0  0  0  0  0  0  0  0  0  0  0
    5.9840   -0.0859    0.0000 C   0  0  0  0  0  0  0  0  0  0  0  0
    6.8090   -0.0859    0.0000 C   0  0  0  0  0  0  0  0  0  0  0  0
    7.0639   -0.8705    0.0000 C   0  0  0  0  0  0  0  0  0  0  0  0
    6.3965   -1.3554    0.0000 N   0  0  0  0  0  0  0  0  0  0  0  0
    5.7290   -0.8705    0.0000 C   0  0  0  0  0  0  0  0  0  0  0  0
    6.3965   -2.1804    0.0000 C   0  0  0  0  0  0  0  0  0  0  0  0
    7.1110   -2.5929    0.0000 C   0  0  0  0  0  0  0  0  0  0  0  0
    7.1110   -3.4179    0.0000 C   0  0  0  0  0  0  0  0  0  0  0  0
    7.8254   -3.8304    0.0000 Cl  0  0  0  0  0  0  0  0  0  0  0  0
    6.3965   -3.8304    0.0000 C   0  0  0  0  0  0  0  0  0  0  0  0
    5.6820   -3.4179    0.0000 C   0  0  0  0  0  0  0  0  0  0  0  0
    4.9675   -3.8304    0.0000 C   0  0  0  0  0  0  0  0  0  0  0  0
    4.9675   -4.6554    0.0000 O   0  0  0  0  0  0  0  0  0  0  0  0
    4.2531   -3.4179    0.0000 C   0  0  0  0  0  0  0  0  0  0  0  0
    3.5386   -3.8304    0.0000 C   0  0  0  0  0  0  0  0  0  0  0  0
    2.8241   -3.4179    0.0000 C   0  0  0  0  0  0  0  0  0  0  0  0
    2.8241   -2.5929    0.0000 C   0  0  0  0  0  0  0  0  0  0  0  0
    2.1097   -2.1804    0.0000 Cl  0  0  0  0  0  0  0  0  0  0  0  0
    3.5386   -2.1804    0.0000 C   0  0  0  0  0  0  0  0  0  0  0  0
    4.2531   -2.5929    0.0000 C   0  0  0  0  0  0  0  0  0  0  0  0
    5.6820   -2.5929    0.0000 C   0  0  0  0  0  0  0  0  0  0  0  0
    4.9675   -2.1804    0.0000 O   0  0  0  0  0  0  0  0  0  0  0  0
  1  2  1  0  0  0  0
  2  3  1  0  0  0  0
  3  4  1  0  0  0  0
  4  5  2  0  0  0  0
  5  6  1  0  0  0  0
  6  7  2  0  0  0  0
  7  8  1  0  0  0  0
  4  8  1  0  0  0  0
  6  9  1  0  0  0  0
  9 10  1  0  0  0  0
 10 11  1  0  0  0  0
 11 12  1  0  0  0  0
 12 13  1  0  0  0  0
  9 13  1  0  0  0  0
 12 14  1  0  0  0  0
 14 15  2  0  0  0  0
 15 16  1  0  0  0  0
 16 17  1  0  0  0  0
 16 18  2  0  0  0  0
 18 19  1  0  0  0  0
 19 20  1  0  0  0  0
 20 21  2  0  0  0  0
 20 22  1  0  0  0  0
 22 23  2  0  0  0  0
 23 24  1  0  0  0  0
 24 25  2  0  0  0  0
 25 26  1  0  0  0  0
 25 27  1  0  0  0  0
 27 28  2  0  0  0  0
 22 28  1  0  0  0  0
 19 29  2  0  0  0  0
 14 29  1  0  0  0  0
 29 30  1  0  0  0  0
M  END
> <ID>
CPD_2617

$$$$
CPD_2622
  Mrv1822 09091914012D          

 22 24  0  0  0  0            999 V2000
    1.3099   -0.9780    0.0000 O   0  0  0  0  0  0  0  0  0  0  0  0
    1.3099   -1.8030    0.0000 C   0  0  0  0  0  0  0  0  0  0  0  0
    2.0244   -2.2155    0.0000 C   0  0  0  0  0  0  0  0  0  0  0  0
    2.0244   -3.0405    0.0000 C   0  0  0  0  0  0  0  0  0  0  0  0
    2.6918   -3.5254    0.0000 C   0  0  0  0  0  0  0  0  0  0  0  0
    2.4369   -4.3100    0.0000 C   0  0  0  0  0  0  0  0  0  0  0  0
    1.6119   -4.3100    0.0000 N   0  0  0  0  0  0  0  0  0  0  0  0
    1.3570   -3.5254    0.0000 N   0  0  0  0  0  0  0  0  0  0  0  0
    2.9218   -4.9774    0.0000 C   0  0  0  0  0  0  0  0  0  0  0  0
    3.7468   -4.9774    0.0000 C   0  0  0  0  0  0  0  0  0  0  0  0
    4.0018   -5.7621    0.0000 C   0  0  0  0  0  0  0  0  0  0  0  0
    3.3343   -6.2470    0.0000 N   0  0  0  0  0  0  0  0  0  0  0  0
    2.6669   -5.7621    0.0000 C   0  0  0  0  0  0  0  0  0  0  0  0
    3.3343   -7.0720    0.0000 C   0  0  0  0  0  0  0  0  0  0  0  0
    4.0488   -7.4845    0.0000 C   0  0  0  0  0  0  0  0  0  0  0  0
    4.0488   -8.3095    0.0000 C   0  0  0  0  0  0  0  0  0  0  0  0
    3.3343   -8.7220    0.0000 C   0  0  0  0  0  0  0  0  0  0  0  0
    2.6198   -8.3095    0.0000 C   0  0  0  0  0  0  0  0  0  0  0  0
    2.6198   -7.4845    0.0000 C   0  0  0  0  0  0  0  0  0  0  0  0
    1.9054   -8.7220    0.0000 C   0  0  0  0  0  0  0  0  0  0  0  0
    1.9054   -9.5470    0.0000 O   0  0  0  0  0  0  0  0  0  0  0  0
    1.1909   -8.3095    0.0000 O   0  0  0  0  0  0  0  0  0  0  0  0
  1  2  1  0  0  0  0
  2  3  1  0  0  0  0
  3  4  1  0  0  0  0
  4  5  2  0  0  0  0
  5  6  1  0  0  0  0
  6  7  2  0  0  0  0
  7  8  1  0  0  0  0
  4  8  1  0  0  0  0
  6  9  1  0  0  0  0
  9 10  1  0  0  0  0
 10 11  1  0  0  0  0
 11 12  1  0  0  0  0
 12 13  1  0  0  0  0
  9 13  1  0  0  0  0
 12 14  1  0  0  0  0
 14 15  2  0  0  0  0
 15 16  1  0  0  0  0
 16 17  2  0  0  0  0
 17 18  1  0  0  0  0
 18 19  2  0  0  0  0
 14 19  1  0  0  0  0
 18 20  1  0  0  0  0
 20 21  1  0  0  0  0
 20 22  2  0  0  0  0
M  END
> <ID>
CPD_2622

$$$$
CPD_2627
  Mrv1822 09091914012D          

 27 30  0  0  0  0            999 V2000
    5.6820   -0.2412    0.0000 O   0  0  0  0  0  0  0  0  0  0  0  0
    5.6820   -1.0662    0.0000 C   0  0  0  0  0  0  0  0  0  0  0  0
    6.3965   -1.4787    0.0000 C   0  0  0  0  0  0  0  0  0  0  0  0
    6.3965   -2.3037    0.0000 C   0  0  0  0  0  0  0  0  0  0  0  0
    7.0639   -2.7886    0.0000 C   0  0  0  0  0  0  0  0  0  0  0  0
    6.8090   -3.5732    0.0000 C   0  0  0  0  0  0  0  0  0  0  0  0
    5.9840   -3.5732    0.0000 N   0  0  0  0  0  0  0  0  0  0  0  0
    5.7290   -2.7886    0.0000 N   0  0  0  0  0  0  0  0  0  0  0  0
    7.2939   -4.2406    0.0000 C   0  0  0  0  0  0  0  0  0  0  0  0
    8.1189   -4.2406    0.0000 C   0  0  0  0  0  0  0  0  0  0  0  0
    8.3738   -5.0253    0.0000 C   0  0  0  0  0  0  0  0  0  0  0  0
    7.7064   -5.5102    0.0000 N   0  0  0  0  0  0  0  0  0  0  0  0
    7.0390   -5.0253    0.0000 C   0  0  0  0  0  0  0  0  0  0  0  0
    7.7064   -6.3352    0.0000 C   0  0  0  0  0  0  0  0  0  0  0  0
    8.4209   -6.7477    0.0000 C   0  0  0  0  0  0  0  0  0  0  0  0
    8.4209   -7.5727    0.0000 C   0  0  0  0  0  0  0  0  0  0  0  0
    7.7064   -7.9852    0.0000 C   0  0  0  0  0  0  0  0  0  0  0  0
    6.9919   -7.5727    0.0000 C   0  0  0  0  0  0  0  0  0  0  0  0
    6.9919   -6.7477    0.0000 C   0  0  0  0  0  0  0  0  0  0  0  0
    7.7064   -8.8102    0.0000 C   0  0  0  0  0  0  0  0  0  0  0  0
    8.4209   -9.2227    0.0000 O   0  0  0  0  0  0  0  0  0  0  0  0
    6.9919   -9.2227    0.0000 C   0  0  0  0  0  0  0  0  0  0  0  0
    6.9919  -10.0477    0.0000 C   0  0  0  0  0  0  0  0  0  0  0  0
    6.2775  -10.4602    0.0000 C   0  0  0  0  0  0  0  0  0  0  0  0
    5.5630  -10.0477    0.0000 C   0  0  0  0  0  0  0  0  0  0  0  0
    5.5630   -9.2227    0.0000 C   0  0  0  0  0  0  0  0  0  0  0  0
    6.2775   -8.8102    0.0000 C   0  0  0  0  0  0  0  0  0  0  0  0
  1  2  1  0  0  0  0
  2  3  1  0  0  0  0
  3  4  1  0  0  0  0
  4  5  2  0  0  0  0
  5  6  1  0  0  0  0
  6  7  2  0  0  0  0
  7  8  1  0  0  0  0
  4  8  1  0  0  0  0
  6  9  1  0  0  0  0
  9 10  1  0  0  0  0
 10 11  1  0  0  0  0
 11 12  1  0  0  0  0
 12 13  1  0  0  0  0
  9 13  1  0  0  0  0
 12 14  1  0  0  0  0
 14 15  2  0  0  0  0
 15 16  1  0  0  0  0
 16 17  2  0  0  0  0
 17 18  1  0  0  0  0
 18 19  2  0  0  0  0
 14 19  1  0  0  0  0
 17 20  1  0  0  0  0
 20 21  2  0  0  0  0
 20 22  1  0  0  0  0
 22 23  2  0  0  0  0
 23 24  1  0  0  0  0
 24 25  2  0  0  0  0
 25 26  1  0  0  0  0
 26 27  2  0  0  0  0
 22 27  1  0  0  0  0
M  END
> <ID>
CPD_2627

$$$$
CPD_2632
  Mrv1822 09091914012D          

 26 28  0  0  0  0            999 V2000
    1.3222    8.0652    0.0000 C   0  0  0  0  0  0  0  0  0  0  0  0
    1.3222    7.2402    0.0000 C   0  0  0  0  0  0  0  0  0  0  0  0
    2.0367    6.8277    0.0000 C   0  0  0  0  0  0  0  0  0  0  0  0
    2.0367    6.0027    0.0000 N   0  0  0  0  0  0  0  0  0  0  0  0
    1.3222    5.5902    0.0000 C   0  0  0  0  0  0  0  0  0  0  0  0
    1.3222    4.7652    0.0000 C   0  0  0  0  0  0  0  0  0  0  0  0
    2.0367    4.3527    0.0000 C   0  0  0  0  0  0  0  0  0  0  0  0
    2.7512    4.7652    0.0000 C   0  0  0  0  0  0  0  0  0  0  0  0
    3.4656    4.3527    0.0000 C   0  0  0  0  0  0  0  0  0  0  0  0
    3.4656    3.5277    0.0000 C   0  0  0  0  0  0  0  0  0  0  0  0
    2.7512    3.1152    0.0000 N   0  0  0  0  0  0  0  0  0  0  0  0
    2.0367    3.5277    0.0000 C   0  0  0  0  0  0  0  0  0  0  0  0
    2.7512    2.2902    0.0000 C   0  0  0  0  0  0  0  0  0  0  0  0
    3.4186    1.8053    0.0000 C   0  0  0  0  0  0  0  0  0  0  0  0
    3.1637    1.0206    0.0000 N   0  0  0  0  0  0  0  0  0  0  0  0
    2.3387    1.0206    0.0000 N   0  0  0  0  0  0  0  0  0  0  0  0
    2.0837    1.8053    0.0000 C   0  0  0  0  0  0  0  0  0  0  0  0
    3.6486    0.3532    0.0000 C   0  0  0  0  0  0  0  0  0  0  0  0
    4.4691    0.4394    0.0000 O   0  0  0  0  0  0  0  0  0  0  0  0
    3.3130   -0.4005    0.0000 O   0  0  0  0  0  0  0  0  0  0  0  0
    3.7980   -1.0679    0.0000 C   0  0  0  0  0  0  0  0  0  0  0  0
    4.2829   -1.7354    0.0000 C   0  0  0  0  0  0  0  0  0  0  0  0
    3.1305   -1.5528    0.0000 C   0  0  0  0  0  0  0  0  0  0  0  0
    4.4654   -0.5830    0.0000 C   0  0  0  0  0  0  0  0  0  0  0  0
    0.6078    6.0027    0.0000 C   0  0  0  0  0  0  0  0  0  0  0  0
    0.6078    6.8277    0.0000 C   0  0  0  0  0  0  0  0  0  0  0  0
  1  2  1  0  0  0  0
  2  3  2  0  0  0  0
  3  4  1  0  0  0  0
  4  5  2  0  0  0  0
  5  6  1  0  0  0  0
  6  7  1  0  0  0  0
  7  8  1  0  0  0  0
  8  9  1  0  0  0  0
  9 10  1  0  0  0  0
 10 11  1  0  0  0  0
 11 12  1  0  0  0  0
  7 12  1  0  0  0  0
 11 13  1  0  0  0  0
 13 14  2  0  0  0  0
 14 15  1  0  0  0  0
 15 16  1  0  0  0  0
 16 17  2  0  0  0  0
 13 17  1  0  0  0  0
 15 18  1  0  0  0  0
 18 19  2  0  0  0  0
 18 20  1  0  0  0  0
 20 21  1  0  0  0  0
 21 22  1  0  0  0  0
 21 23  1  0  0  0  0
 21 24  1  0  0  0  0
  5 25  1  0  0  0  0
 25 26  2  0  0  0  0
  2 26  1  0  0  0  0
M  END
> <ID>
CPD_2632

$$$$
CPD_2637
  Mrv1822 09091914012D          

 25 27  0  0  0  0            999 V2000
    2.1434   -2.8875    0.0000 C   0  0  0  0  0  0  0  0  0  0  0  0
    2.1434   -3.7125    0.0000 C   0  0  0  0  0  0  0  0  0  0  0  0
    2.8579   -4.1250    0.0000 C   0  0  0  0  0  0  0  0  0  0  0  0
    2.8579   -4.9500    0.0000 N   0  0  0  0  0  0  0  0  0  0  0  0
    2.1434   -5.3625    0.0000 C   0  0  0  0  0  0  0  0  0  0  0  0
    2.1434   -6.1875    0.0000 C   0  0  0  0  0  0  0  0  0  0  0  0
    2.8579   -6.6000    0.0000 C   0  0  0  0  0  0  0  0  0  0  0  0
    3.5724   -6.1875    0.0000 C   0  0  0  0  0  0  0  0  0  0  0  0
    4.2868   -6.6000    0.0000 C   0  0  0  0  0  0  0  0  0  0  0  0
    4.2868   -7.4250    0.0000 C   0  0  0  0  0  0  0  0  0  0  0  0
    3.5724   -7.8375    0.0000 N   0  0  0  0  0  0  0  0  0  0  0  0
    2.8579   -7.4250    0.0000 C   0  0  0  0  0  0  0  0  0  0  0  0
    3.5724   -8.6625    0.0000 C   0  0  0  0  0  0  0  0  0  0  0  0
    4.2868   -9.0750    0.0000 C   0  0  0  0  0  0  0  0  0  0  0  0
    4.2868   -9.9000    0.0000 C   0  0  0  0  0  0  0  0  0  0  0  0
    3.5724  -10.3125    0.0000 C   0  0  0  0  0  0  0  0  0  0  0  0
    2.8579   -9.9000    0.0000 C   0  0  0  0  0  0  0  0  0  0  0  0
    2.1434  -10.3125    0.0000 O   0  0  0  0  0  0  0  0  0  0  0  0
    2.1434  -11.1375    0.0000 C   0  0  0  0  0  0  0  0  0  0  0  0
    2.1434  -11.9625    0.0000 F   0  0  0  0  0  0  0  0  0  0  0  0
    1.3184  -11.1375    0.0000 F   0  0  0  0  0  0  0  0  0  0  0  0
    2.9684  -11.1375    0.0000 F   0  0  0  0  0  0  0  0  0  0  0  0
    2.8579   -9.0750    0.0000 C   0  0  0  0  0  0  0  0  0  0  0  0
    1.4289   -4.9500    0.0000 C   0  0  0  0  0  0  0  0  0  0  0  0
    1.4289   -4.1250    0.0000 C   0  0  0  0  0  0  0  0  0  0  0  0
  1  2  1  0  0  0  0
  2  3  2  0  0  0  0
  3  4  1  0  0  0  0
  4  5  2  0  0  0  0
  5  6  1  0  0  0  0
  6  7  1  0  0  0  0
  7  8  1  0  0  0  0
  8  9  1  0  0  0  0
  9 10  1  0  0  0  0
 10 11  1  0  0  0  0
 11 12  1  0  0  0  0
  7 12  1  0  0  0  0
 11 13  1  0  0  0  0
 13 14  2  0  0  0  0
 14 15  1  0  0  0  0
 15 16  2  0  0  0  0
 16 17  1  0  0  0  0
 17 18  1  0  0  0  0
 18 19  1  0  0  0  0
 19 20  1  0  0  0  0
 19 21  1  0  0  0  0
 19 22  1  0  0  0  0
 17 23  2  0  0  0  0
 13 23  1  0  0  0  0
  5 24  1  0  0  0  0
 24 25  2  0  0  0  0
  2 25  1  0  0  0  0
M  END
> <ID>
CPD_2637

$$$$
CPD_2642
  Mrv1822 09091914012D          

 32 36  0  0  0  0            999 V2000
    2.8579   -7.4250    0.0000 C   0  0  0  0  0  0  0  0  0  0  0  0
    2.8579   -6.6000    0.0000 C   0  0  0  0  0  0  0  0  0  0  0  0
    2.1434   -6.1875    0.0000 C   0  0  0  0  0  0  0  0  0  0  0  0
    2.1434   -5.3625    0.0000 N   0  0  0  0  0  0  0  0  0  0  0  0
    2.8579   -4.9500    0.0000 C   0  0  0  0  0  0  0  0  0  0  0  0
    2.8579   -4.1250    0.0000 C   0  0  0  0  0  0  0  0  0  0  0  0
    2.1434   -3.7125    0.0000 C   0  0  0  0  0  0  0  0  0  0  0  0
    1.4289   -4.1250    0.0000 C   0  0  0  0  0  0  0  0  0  0  0  0
    0.7145   -3.7125    0.0000 C   0  0  0  0  0  0  0  0  0  0  0  0
    0.7145   -2.8875    0.0000 C   0  0  0  0  0  0  0  0  0  0  0  0
    1.4289   -2.4750    0.0000 N   0  0  0  0  0  0  0  0  0  0  0  0
    2.1434   -2.8875    0.0000 C   0  0  0  0  0  0  0  0  0  0  0  0
    1.4289   -1.6500    0.0000 C   0  0  0  0  0  0  0  0  0  0  0  0
    0.7145   -1.2375    0.0000 C   0  0  0  0  0  0  0  0  0  0  0  0
    0.7145   -0.4125    0.0000 C   0  0  0  0  0  0  0  0  0  0  0  0
    1.4289    0.0000    0.0000 C   0  0  0  0  0  0  0  0  0  0  0  0
    2.1434   -0.4125    0.0000 C   0  0  0  0  0  0  0  0  0  0  0  0
    2.8579    0.0000    0.0000 C   0  0  0  0  0  0  0  0  0  0  0  0
    3.5724   -0.4125    0.0000 C   0  0  0  0  0  0  0  0  0  0  0  0
    3.5724   -1.2375    0.0000 C   0  0  0  0  0  0  0  0  0  0  0  0
    2.8579   -1.6500    0.0000 N   0  0  0  0  0  0  0  0  0  0  0  0
    2.1434   -1.2375    0.0000 C   0  0  0  0  0  0  0  0  0  0  0  0
    4.2868   -1.6500    0.0000 C   0  0  0  0  0  0  0  0  0  0  0  0
    5.0405   -1.3144    0.0000 C   0  0  0  0  0  0  0  0  0  0  0  0
    5.5925   -1.9275    0.0000 C   0  0  0  0  0  0  0  0  0  0  0  0
    5.1800   -2.6420    0.0000 C   0  0  0  0  0  0  0  0  0  0  0  0
    4.3731   -2.4705    0.0000 O   0  0  0  0  0  0  0  0  0  0  0  0
    2.8579    0.8250    0.0000 C   0  0  0  0  0  0  0  0  0  0  0  0
    3.5724    1.2375    0.0000 O   0  0  0  0  0  0  0  0  0  0  0  0
    2.1434    1.2375    0.0000 O   0  0  0  0  0  0  0  0  0  0  0  0
    3.5724   -5.3625    0.0000 C   0  0  0  0  0  0  0  0  0  0  0  0
    3.5724   -6.1875    0.0000 C   0  0  0  0  0  0  0  0  0  0  0  0
  1  2  1  0  0  0  0
  2  3  2  0  0  0  0
  3  4  1  0  0  0  0
  4  5  2  0  0  0  0
  5  6  1  0  0  0  0
  6  7  1  0  0  0  0
  7  8  1  0  0  0  0
  8  9  1  0  0  0  0
  9 10  1  0  0  0  0
 10 11  1  0  0  0  0
 11 12  1  0  0  0  0
  7 12  1  0  0  0  0
 11 13  1  0  0  0  0
 13 14  2  0  0  0  0
 14 15  1  0  0  0  0
 15 16  2  0  0  0  0
 16 17  1  0  0  0  0
 17 18  2  0  0  0  0
 18 19  1  0  0  0  0
 19 20  2  0  0  0  0
 20 21  1  0  0  0  0
 21 22  2  0  0  0  0
 13 22  1  0  0  0  0
 17 22  1  0  0  0  0
 20 23  1  0  0  0  0
 23 24  2  0  0  0  0
 24 25  1  0  0  0  0
 25 26  2  0  0  0  0
 26 27  1  0  0  0  0
 23 27  1  0  0  0  0
 18 28  1  0  0  0  0
 28 29  1  0  0  0  0
 28 30  2  0  0  0  0
  5 31  1  0  0  0  0
 31 32  2  0  0  0  0
  2 32  1  0  0  0  0
M  END
> <ID>
CPD_2642

$$$$
CPD_2647
  Mrv1822 09091914012D          

 31 33  0  0  0  0            999 V2000
    0.7145   -0.4125    0.0000 C   0  0  0  0  0  0  0  0  0  0  0  0
    0.7145   -1.2375    0.0000 N   0  0  0  0  0  0  0  0  0  0  0  0
    1.4289   -1.6500    0.0000 C   0  0  0  0  0  0  0  0  0  0  0  0
    2.1434   -1.2375    0.0000 O   0  0  0  0  0  0  0  0  0  0  0  0
    1.4289   -2.4750    0.0000 C   0  0  0  0  0  0  0  0  0  0  0  0
    0.7145   -2.8875    0.0000 C   0  0  0  0  0  0  0  0  0  0  0  0
    0.7145   -3.7125    0.0000 N   0  0  0  0  0  0  0  0  0  0  0  0
    1.4289   -4.1250    0.0000 C   0  0  0  0  0  0  0  0  0  0  0  0
    2.1434   -3.7125    0.0000 C   0  0  0  0  0  0  0  0  0  0  0  0
    2.1434   -2.8875    0.0000 N   0  0  0  0  0  0  0  0  0  0  0  0
    2.8579   -2.4750    0.0000 C   0  0  0  0  0  0  0  0  0  0  0  0
    2.8579   -1.6500    0.0000 C   0  0  0  0  0  0  0  0  0  0  0  0
    3.5724   -1.2375    0.0000 C   0  0  0  0  0  0  0  0  0  0  0  0
    4.2868   -1.6500    0.0000 C   0  0  0  0  0  0  0  0  0  0  0  0
    4.2868   -2.4750    0.0000 C   0  0  0  0  0  0  0  0  0  0  0  0
    3.5724   -2.8875    0.0000 C   0  0  0  0  0  0  0  0  0  0  0  0
    3.5724   -3.7125    0.0000 C   0  0  0  0  0  0  0  0  0  0  0  0
    4.2868   -4.1250    0.0000 C   0  0  0  0  0  0  0  0  0  0  0  0
    5.0013   -3.7125    0.0000 C   0  0  0  0  0  0  0  0  0  0  0  0
    5.7158   -4.1250    0.0000 C   0  0  0  0  0  0  0  0  0  0  0  0
    5.7158   -4.9500    0.0000 C   0  0  0  0  0  0  0  0  0  0  0  0
    5.0013   -5.3625    0.0000 N   0  0  0  0  0  0  0  0  0  0  0  0
    4.2868   -4.9500    0.0000 C   0  0  0  0  0  0  0  0  0  0  0  0
    3.5724   -5.3625    0.0000 O   0  0  0  0  0  0  0  0  0  0  0  0
    0.0000   -4.1250    0.0000 C   0  0  0  0  0  0  0  0  0  0  0  0
   -0.7145   -3.7125    0.0000 O   0  0  0  0  0  0  0  0  0  0  0  0
    0.0000   -4.9500    0.0000 O   0  0  0  0  0  0  0  0  0  0  0  0
    0.7145   -5.3625    0.0000 C   0  0  0  0  0  0  0  0  0  0  0  0
    1.4289   -5.7750    0.0000 C   0  0  0  0  0  0  0  0  0  0  0  0
    0.3020   -6.0770    0.0000 C   0  0  0  0  0  0  0  0  0  0  0  0
    1.1270   -4.6480    0.0000 C   0  0  0  0  0  0  0  0  0  0  0  0
  1  2  1  0  0  0  0
  2  3  1  0  0  0  0
  3  4  2  0  0  0  0
  3  5  1  0  0  0  0
  5  6  1  0  0  0  0
  6  7  1  0  0  0  0
  7  8  1  0  0  0  0
  8  9  1  0  0  0  0
  9 10  1  0  0  0  0
  5 10  1  0  0  0  0
 10 11  1  0  0  0  0
 11 12  2  0  0  0  0
 12 13  1  0  0  0  0
 13 14  2  0  0  0  0
 14 15  1  0  0  0  0
 15 16  2  0  0  0  0
 11 16  1  0  0  0  0
 16 17  1  0  0  0  0
 17 18  1  0  0  0  0
 18 19  1  0  0  0  0
 19 20  1  0  0  0  0
 20 21  1  0  0  0  0
 21 22  1  0  0  0  0
 22 23  1  0  0  0  0
 18 23  1  0  0  0  0
 23 24  2  0  0  0  0
  7 25  1  0  0  0  0
 25 26  2  0  0  0  0
 25 27  1  0  0  0  0
 27 28  1  0  0  0  0
 28 29  1  0  0  0  0
 28 30  1  0  0  0  0
 28 31  1  0  0  0  0
M  END
> <ID>
CPD_2647

$$$$
CPD_2652
  Mrv1822 09091914012D          

 29 30  0  0  0  0            999 V2000
    0.0000    0.8250    0.0000 C   0  0  0  0  0  0  0  0  0  0  0  0
    0.0000   -0.0000    0.0000 N   0  0  0  0  0  0  0  0  0  0  0  0
    0.7145   -0.4125    0.0000 C   0  0  0  0  0  0  0  0  0  0  0  0
    1.4289    0.0000    0.0000 O   0  0  0  0  0  0  0  0  0  0  0  0
    0.7145   -1.2375    0.0000 C   0  0  0  0  0  0  0  0  0  0  0  0
    0.0000   -1.6500    0.0000 C   0  0  0  0  0  0  0  0  0  0  0  0
    0.0000   -2.4750    0.0000 N   0  0  0  0  0  0  0  0  0  0  0  0
    0.7145   -2.8875    0.0000 C   0  0  0  0  0  0  0  0  0  0  0  0
    1.4289   -2.4750    0.0000 C   0  0  0  0  0  0  0  0  0  0  0  0
    1.4289   -1.6500    0.0000 N   0  0  0  0  0  0  0  0  0  0  0  0
    2.1434   -1.2375    0.0000 C   0  0  0  0  0  0  0  0  0  0  0  0
    2.1434   -0.4125    0.0000 C   0  0  0  0  0  0  0  0  0  0  0  0
    2.8579    0.0000    0.0000 C   0  0  0  0  0  0  0  0  0  0  0  0
    3.5724   -0.4125    0.0000 C   0  0  0  0  0  0  0  0  0  0  0  0
    3.5724   -1.2375    0.0000 C   0  0  0  0  0  0  0  0  0  0  0  0
    4.2868   -1.6500    0.0000 Cl  0  0  0  0  0  0  0  0  0  0  0  0
    2.8579   -1.6500    0.0000 C   0  0  0  0  0  0  0  0  0  0  0  0
    2.8579   -2.4750    0.0000 N   0  0  0  0  0  0  0  0  0  0  0  0
    2.8579    0.8250    0.0000 S   0  0  0  0  0  0  0  0  0  0  0  0
    2.8579    1.6500    0.0000 N   0  0  0  0  0  0  0  0  0  0  0  0
    2.0329    0.8250    0.0000 O   0  0  0  0  0  0  0  0  0  0  0  0
    3.6829    0.8250    0.0000 O   0  0  0  0  0  0  0  0  0  0  0  0
   -0.7145   -2.8875    0.0000 C   0  0  0  0  0  0  0  0  0  0  0  0
   -1.4289   -2.4750    0.0000 O   0  0  0  0  0  0  0  0  0  0  0  0
   -0.7145   -3.7125    0.0000 O   0  0  0  0  0  0  0  0  0  0  0  0
    0.0000   -4.1250    0.0000 C   0  0  0  0  0  0  0  0  0  0  0  0
    0.7145   -4.5375    0.0000 C   0  0  0  0  0  0  0  0  0  0  0  0
   -0.4125   -4.8395    0.0000 C   0  0  0  0  0  0  0  0  0  0  0  0
    0.4125   -3.4105    0.0000 C   0  0  0  0  0  0  0  0  0  0  0  0
  1  2  1  0  0  0  0
  2  3  1  0  0  0  0
  3  4  2  0  0  0  0
  3  5  1  0  0  0  0
  5  6  1  0  0  0  0
  6  7  1  0  0  0  0
  7  8  1  0  0  0  0
  8  9  1  0  0  0  0
  9 10  1  0  0  0  0
  5 10  1  0  0  0  0
 10 11  1  0  0  0  0
 11 12  2  0  0  0  0
 12 13  1  0  0  0  0
 13 14  2  0  0  0  0
 14 15  1  0  0  0  0
 15 16  1  0  0  0  0
 15 17  2  0  0  0  0
 11 17  1  0  0  0  0
 17 18  1  0  0  0  0
 13 19  1  0  0  0  0
 19 20  1  0  0  0  0
 19 21  2  0  0  0  0
 19 22  2  0  0  0  0
  7 23  1  0  0  0  0
 23 24  2  0  0  0  0
 23 25  1  0  0  0  0
 25 26  1  0  0  0  0
 26 27  1  0  0  0  0
 26 28  1  0  0  0  0
 26 29  1  0  0  0  0
M  END
> <ID>
CPD_2652

$$$$
CPD_2657
  Mrv1822 09091914012D          

 29 30  0  0  0  0            999 V2000
    0.0000    0.8250    0.0000 C   0  0  0  0  0  0  0  0  0  0  0  0
    0.0000    0.0000    0.0000 N   0  0  0  0  0  0  0  0  0  0  0  0
    0.7145   -0.4125    0.0000 C   0  0  0  0  0  0  0  0  0  0  0  0
    1.4289   -0.0000    0.0000 O   0  0  0  0  0  0  0  0  0  0  0  0
    0.7145   -1.2375    0.0000 C   0  0  0  0  0  0  0  0  0  0  0  0
    1.4289   -1.6500    0.0000 C   0  0  0  0  0  0  0  0  0  0  0  0
    1.4289   -2.4750    0.0000 N   0  0  0  0  0  0  0  0  0  0  0  0
    0.7145   -2.8875    0.0000 C   0  0  0  0  0  0  0  0  0  0  0  0
    0.0000   -2.4750    0.0000 C   0  0  0  0  0  0  0  0  0  0  0  0
    0.0000   -1.6500    0.0000 N   0  0  0  0  0  0  0  0  0  0  0  0
   -0.7145   -1.2375    0.0000 C   0  0  0  0  0  0  0  0  0  0  0  0
   -1.4289   -1.6500    0.0000 C   0  0  0  0  0  0  0  0  0  0  0  0
   -2.1434   -1.2375    0.0000 C   0  0  0  0  0  0  0  0  0  0  0  0
   -2.8579   -1.6500    0.0000 F   0  0  0  0  0  0  0  0  0  0  0  0
   -2.1434   -0.4125    0.0000 C   0  0  0  0  0  0  0  0  0  0  0  0
   -2.8579    0.0000    0.0000 F   0  0  0  0  0  0  0  0  0  0  0  0
   -1.4289   -0.0000    0.0000 C   0  0  0  0  0  0  0  0  0  0  0  0
   -1.4289    0.8250    0.0000 C   0  0  0  0  0  0  0  0  0  0  0  0
   -2.1434    1.2375    0.0000 C   0  0  0  0  0  0  0  0  0  0  0  0
   -2.1434    2.0625    0.0000 O   0  0  0  0  0  0  0  0  0  0  0  0
   -2.8579    0.8250    0.0000 O   0  0  0  0  0  0  0  0  0  0  0  0
   -0.7145   -0.4125    0.0000 C   0  0  0  0  0  0  0  0  0  0  0  0
    2.1434   -2.8875    0.0000 C   0  0  0  0  0  0  0  0  0  0  0  0
    2.8579   -2.4750    0.0000 O   0  0  0  0  0  0  0  0  0  0  0  0
    2.1434   -3.7125    0.0000 O   0  0  0  0  0  0  0  0  0  0  0  0
    2.8579   -4.1250    0.0000 C   0  0  0  0  0  0  0  0  0  0  0  0
    3.5724   -4.5375    0.0000 C   0  0  0  0  0  0  0  0  0  0  0  0
    2.4454   -4.8395    0.0000 C   0  0  0  0  0  0  0  0  0  0  0  0
    3.2704   -3.4105    0.0000 C   0  0  0  0  0  0  0  0  0  0  0  0
  1  2  1  0  0  0  0
  2  3  1  0  0  0  0
  3  4  2  0  0  0  0
  3  5  1  0  0  0  0
  5  6  1  0  0  0  0
  6  7  1  0  0  0  0
  7  8  1  0  0  0  0
  8  9  1  0  0  0  0
  9 10  1  0  0  0  0
  5 10  1  0  0  0  0
 10 11  1  0  0  0  0
 11 12  2  0  0  0  0
 12 13  1  0  0  0  0
 13 14  1  0  0  0  0
 13 15  2  0  0  0  0
 15 16  1  0  0  0  0
 15 17  1  0  0  0  0
 17 18  1  0  0  0  0
 18 19  1  0  0  0  0
 19 20  1  0  0  0  0
 19 21  2  0  0  0  0
 17 22  2  0  0  0  0
 11 22  1  0  0  0  0
  7 23  1  0  0  0  0
 23 24  2  0  0  0  0
 23 25  1  0  0  0  0
 25 26  1  0  0  0  0
 26 27  1  0  0  0  0
 26 28  1  0  0  0  0
 26 29  1  0  0  0  0
M  END
> <ID>
CPD_2657

$$$$
CPD_2662
  Mrv1822 09091914012D          

 21 22  0  0  0  0            999 V2000
    2.8579   -1.6500    0.0000 C   0  0  0  0  0  0  0  0  0  0  0  0
    2.8579   -2.4750    0.0000 C   0  0  0  0  0  0  0  0  0  0  0  0
    3.5724   -2.8875    0.0000 C   0  0  0  0  0  0  0  0  0  0  0  0
    3.5724   -3.7125    0.0000 N   0  0  0  0  0  0  0  0  0  0  0  0
    2.8579   -4.1250    0.0000 C   0  0  0  0  0  0  0  0  0  0  0  0
    2.1434   -3.7125    0.0000 C   0  0  0  0  0  0  0  0  0  0  0  0
    1.4289   -4.1250    0.0000 O   0  0  0  0  0  0  0  0  0  0  0  0
    2.1434   -2.8875    0.0000 C   0  0  0  0  0  0  0  0  0  0  0  0
    4.2868   -2.4750    0.0000 N   0  0  0  0  0  0  0  0  0  0  0  0
    5.0013   -2.8875    0.0000 C   0  0  0  0  0  0  0  0  0  0  0  0
    5.7158   -2.4750    0.0000 C   0  0  0  0  0  0  0  0  0  0  0  0
    6.4302   -2.8875    0.0000 C   0  0  0  0  0  0  0  0  0  0  0  0
    7.1447   -2.4750    0.0000 C   0  0  0  0  0  0  0  0  0  0  0  0
    7.8592   -2.8875    0.0000 C   0  0  0  0  0  0  0  0  0  0  0  0
    7.8592   -3.7125    0.0000 C   0  0  0  0  0  0  0  0  0  0  0  0
    7.1447   -4.1250    0.0000 N   0  0  0  0  0  0  0  0  0  0  0  0
    6.4302   -3.7125    0.0000 C   0  0  0  0  0  0  0  0  0  0  0  0
    4.2868   -1.6500    0.0000 S   0  0  0  0  0  0  0  0  0  0  0  0
    4.2868   -0.8250    0.0000 C   0  0  0  0  0  0  0  0  0  0  0  0
    5.1118   -1.6500    0.0000 O   0  0  0  0  0  0  0  0  0  0  0  0
    3.4618   -1.6500    0.0000 O   0  0  0  0  0  0  0  0  0  0  0  0
  1  2  1  0  0  0  0
  2  3  2  0  0  0  0
  3  4  1  0  0  0  0
  4  5  2  0  0  0  0
  5  6  1  0  0  0  0
  6  7  1  0  0  0  0
  6  8  2  0  0  0  0
  2  8  1  0  0  0  0
  3  9  1  0  0  0  0
  9 10  1  0  0  0  0
 10 11  1  0  0  0  0
 11 12  1  0  0  0  0
 12 13  1  0  0  0  0
 13 14  1  0  0  0  0
 14 15  1  0  0  0  0
 15 16  1  0  0  0  0
 16 17  1  0  0  0  0
 12 17  1  0  0  0  0
  9 18  1  0  0  0  0
 18 19  1  0  0  0  0
 18 20  2  0  0  0  0
 18 21  2  0  0  0  0
M  END
> <ID>
CPD_2662

$$$$
CPD_2667
  Mrv1822 09091914012D          

 30 32  0  0  0  0            999 V2000
   -2.8579    2.4750    0.0000 C   0  0  0  0  0  0  0  0  0  0  0  0
   -3.5724    2.0625    0.0000 O   0  0  0  0  0  0  0  0  0  0  0  0
   -3.5724    1.2375    0.0000 C   0  0  0  0  0  0  0  0  0  0  0  0
   -2.8579    0.8250    0.0000 C   0  0  0  0  0  0  0  0  0  0  0  0
   -2.8579   -0.0000    0.0000 C   0  0  0  0  0  0  0  0  0  0  0  0
   -3.5724   -0.4125    0.0000 C   0  0  0  0  0  0  0  0  0  0  0  0
   -4.2868    0.0000    0.0000 C   0  0  0  0  0  0  0  0  0  0  0  0
   -4.2868    0.8250    0.0000 C   0  0  0  0  0  0  0  0  0  0  0  0
   -5.0013    1.2375    0.0000 C   0  0  0  0  0  0  0  0  0  0  0  0
   -5.7158    0.8250    0.0000 N   0  0  0  0  0  0  0  0  0  0  0  0
   -6.4302    1.2375    0.0000 C   0  0  0  0  0  0  0  0  0  0  0  0
   -7.1447    0.8250    0.0000 C   0  0  0  0  0  0  0  0  0  0  0  0
   -7.8592    1.2375    0.0000 C   0  0  0  0  0  0  0  0  0  0  0  0
   -8.5737    0.8250    0.0000 C   0  0  0  0  0  0  0  0  0  0  0  0
   -8.5737    0.0000    0.0000 C   0  0  0  0  0  0  0  0  0  0  0  0
   -7.8592   -0.4125    0.0000 C   0  0  0  0  0  0  0  0  0  0  0  0
   -7.1447    0.0000    0.0000 C   0  0  0  0  0  0  0  0  0  0  0  0
   -7.8592   -1.2375    0.0000 N   0  0  0  0  0  0  0  0  0  0  0  0
   -7.1447   -1.6500    0.0000 C   0  0  0  0  0  0  0  0  0  0  0  0
   -7.1447   -2.4750    0.0000 C   0  0  0  0  0  0  0  0  0  0  0  0
   -6.4302   -2.8875    0.0000 C   0  0  0  0  0  0  0  0  0  0  0  0
   -5.7158   -2.4750    0.0000 C   0  0  0  0  0  0  0  0  0  0  0  0
   -5.0013   -2.8875    0.0000 C   0  0  0  0  0  0  0  0  0  0  0  0
   -5.0013   -3.7125    0.0000 C   0  0  0  0  0  0  0  0  0  0  0  0
   -5.7158   -4.1250    0.0000 N   0  0  0  0  0  0  0  0  0  0  0  0
   -6.4302   -3.7125    0.0000 C   0  0  0  0  0  0  0  0  0  0  0  0
   -8.5737   -1.6500    0.0000 S   0  0  0  0  0  0  0  0  0  0  0  0
   -8.1612   -2.3645    0.0000 C   0  0  0  0  0  0  0  0  0  0  0  0
   -9.2881   -2.0625    0.0000 O   0  0  0  0  0  0  0  0  0  0  0  0
   -8.9862   -0.9355    0.0000 O   0  0  0  0  0  0  0  0  0  0  0  0
  1  2  1  0  0  0  0
  2  3  1  0  0  0  0
  3  4  2  0  0  0  0
  4  5  1  0  0  0  0
  5  6  2  0  0  0  0
  6  7  1  0  0  0  0
  7  8  2  0  0  0  0
  3  8  1  0  0  0  0
  8  9  1  0  0  0  0
  9 10  1  0  0  0  0
 10 11  1  0  0  0  0
 11 12  1  0  0  0  0
 12 13  2  0  0  0  0
 13 14  1  0  0  0  0
 14 15  2  0  0  0  0
 15 16  1  0  0  0  0
 16 17  2  0  0  0  0
 12 17  1  0  0  0  0
 16 18  1  0  0  0  0
 18 19  1  0  0  0  0
 19 20  1  0  0  0  0
 20 21  1  0  0  0  0
 21 22  1  0  0  0  0
 22 23  1  0  0  0  0
 23 24  1  0  0  0  0
 24 25  1  0  0  0  0
 25 26  1  0  0  0  0
 21 26  1  0  0  0  0
 18 27  1  0  0  0  0
 27 28  1  0  0  0  0
 27 29  2  0  0  0  0
 27 30  2  0  0  0  0
M  END
> <ID>
CPD_2667

$$$$
CPD_2672
  Mrv1822 09091914012D          

 22 23  0  0  0  0            999 V2000
    2.0367   -0.4741    0.0000 C   0  0  0  0  0  0  0  0  0  0  0  0
    2.0367   -1.2991    0.0000 O   0  0  0  0  0  0  0  0  0  0  0  0
    2.7512   -1.7116    0.0000 C   0  0  0  0  0  0  0  0  0  0  0  0
    3.4656   -1.2991    0.0000 O   0  0  0  0  0  0  0  0  0  0  0  0
    2.7512   -2.5366    0.0000 C   0  0  0  0  0  0  0  0  0  0  0  0
    3.4186   -3.0215    0.0000 C   0  0  0  0  0  0  0  0  0  0  0  0
    3.1637   -3.8062    0.0000 C   0  0  0  0  0  0  0  0  0  0  0  0
    2.3387   -3.8062    0.0000 N   0  0  0  0  0  0  0  0  0  0  0  0
    2.0837   -3.0215    0.0000 N   0  0  0  0  0  0  0  0  0  0  0  0
    4.2032   -2.7666    0.0000 N   0  0  0  0  0  0  0  0  0  0  0  0
    4.8163   -3.3186    0.0000 C   0  0  0  0  0  0  0  0  0  0  0  0
    5.6010   -3.0637    0.0000 C   0  0  0  0  0  0  0  0  0  0  0  0
    6.2140   -3.6157    0.0000 C   0  0  0  0  0  0  0  0  0  0  0  0
    6.9987   -3.3608    0.0000 C   0  0  0  0  0  0  0  0  0  0  0  0
    7.6118   -3.9128    0.0000 C   0  0  0  0  0  0  0  0  0  0  0  0
    7.4402   -4.7198    0.0000 C   0  0  0  0  0  0  0  0  0  0  0  0
    6.6556   -4.9747    0.0000 N   0  0  0  0  0  0  0  0  0  0  0  0
    6.0425   -4.4227    0.0000 C   0  0  0  0  0  0  0  0  0  0  0  0
    4.3748   -1.9596    0.0000 S   0  0  0  0  0  0  0  0  0  0  0  0
    4.5463   -1.1526    0.0000 C   0  0  0  0  0  0  0  0  0  0  0  0
    5.1817   -2.1311    0.0000 O   0  0  0  0  0  0  0  0  0  0  0  0
    3.5678   -1.7881    0.0000 O   0  0  0  0  0  0  0  0  0  0  0  0
  1  2  1  0  0  0  0
  2  3  1  0  0  0  0
  3  4  2  0  0  0  0
  3  5  1  0  0  0  0
  5  6  2  0  0  0  0
  6  7  1  0  0  0  0
  7  8  2  0  0  0  0
  8  9  1  0  0  0  0
  5  9  1  0  0  0  0
  6 10  1  0  0  0  0
 10 11  1  0  0  0  0
 11 12  1  0  0  0  0
 12 13  1  0  0  0  0
 13 14  1  0  0  0  0
 14 15  1  0  0  0  0
 15 16  1  0  0  0  0
 16 17  1  0  0  0  0
 17 18  1  0  0  0  0
 13 18  1  0  0  0  0
 10 19  1  0  0  0  0
 19 20  1  0  0  0  0
 19 21  2  0  0  0  0
 19 22  2  0  0  0  0
M  END
> <ID>
CPD_2672

$$$$
CPD_2677
  Mrv1822 09091914012D          

 31 34  0  0  0  0            999 V2000
    6.8513    4.9500    0.0000 C   0  0  0  0  0  0  0  0  0  0  0  0
    6.8513    4.1250    0.0000 O   0  0  0  0  0  0  0  0  0  0  0  0
    6.1368    3.7125    0.0000 C   0  0  0  0  0  0  0  0  0  0  0  0
    6.1368    2.8875    0.0000 C   0  0  0  0  0  0  0  0  0  0  0  0
    5.4223    2.4750    0.0000 C   0  0  0  0  0  0  0  0  0  0  0  0
    4.7079    2.8875    0.0000 C   0  0  0  0  0  0  0  0  0  0  0  0
    4.7079    3.7125    0.0000 C   0  0  0  0  0  0  0  0  0  0  0  0
    5.4223    4.1250    0.0000 C   0  0  0  0  0  0  0  0  0  0  0  0
    3.9934    2.4750    0.0000 S   0  0  0  0  0  0  0  0  0  0  0  0
    3.5809    3.1895    0.0000 O   0  0  0  0  0  0  0  0  0  0  0  0
    4.4059    1.7605    0.0000 O   0  0  0  0  0  0  0  0  0  0  0  0
    3.2789    2.0625    0.0000 N   0  0  0  0  0  0  0  0  0  0  0  0
    3.2789    1.2375    0.0000 C   0  0  0  0  0  0  0  0  0  0  0  0
    3.9934    0.8250    0.0000 C   0  0  0  0  0  0  0  0  0  0  0  0
    3.9934    0.0000    0.0000 C   0  0  0  0  0  0  0  0  0  0  0  0
    3.2789   -0.4125    0.0000 C   0  0  0  0  0  0  0  0  0  0  0  0
    2.5645    0.0000    0.0000 C   0  0  0  0  0  0  0  0  0  0  0  0
    2.5645    0.8250    0.0000 C   0  0  0  0  0  0  0  0  0  0  0  0
    1.7798    1.0799    0.0000 C   0  0  0  0  0  0  0  0  0  0  0  0
    1.2949    0.4125    0.0000 C   0  0  0  0  0  0  0  0  0  0  0  0
    0.4699    0.4125    0.0000 O   0  0  0  0  0  0  0  0  0  0  0  0
    1.7798   -0.2549    0.0000 N   0  0  0  0  0  0  0  0  0  0  0  0
    1.5249   -1.0396    0.0000 C   0  0  0  0  0  0  0  0  0  0  0  0
    2.5645    2.4750    0.0000 C   0  0  0  0  0  0  0  0  0  0  0  0
    2.5645    3.3000    0.0000 C   0  0  0  0  0  0  0  0  0  0  0  0
    3.2789    3.7125    0.0000 C   0  0  0  0  0  0  0  0  0  0  0  0
    1.8500    3.7125    0.0000 C   0  0  0  0  0  0  0  0  0  0  0  0
    1.1355    3.3000    0.0000 C   0  0  0  0  0  0  0  0  0  0  0  0
    1.1355    2.4750    0.0000 C   0  0  0  0  0  0  0  0  0  0  0  0
    0.4210    2.0625    0.0000 C   0  0  0  0  0  0  0  0  0  0  0  0
    1.8500    2.0625    0.0000 C   0  0  0  0  0  0  0  0  0  0  0  0
  1  2  1  0  0  0  0
  2  3  1  0  0  0  0
  3  4  2  0  0  0  0
  4  5  1  0  0  0  0
  5  6  2  0  0  0  0
  6  7  1  0  0  0  0
  7  8  2  0  0  0  0
  3  8  1  0  0  0  0
  6  9  1  0  0  0  0
  9 10  2  0  0  0  0
  9 11  2  0  0  0  0
  9 12  1  0  0  0  0
 12 13  1  0  0  0  0
 13 14  2  0  0  0  0
 14 15  1  0  0  0  0
 15 16  2  0  0  0  0
 16 17  1  0  0  0  0
 17 18  2  0  0  0  0
 13 18  1  0  0  0  0
 18 19  1  0  0  0  0
 19 20  1  0  0  0  0
 20 21  2  0  0  0  0
 20 22  1  0  0  0  0
 17 22  1  0  0  0  0
 22 23  1  0  0  0  0
 12 24  1  0  0  0  0
 24 25  2  0  0  0  0
 25 26  1  0  0  0  0
 25 27  1  0  0  0  0
 27 28  2  0  0  0  0
 28 29  1  0  0  0  0
 29 30  1  0  0  0  0
 29 31  2  0  0  0  0
 24 31  1  0  0  0  0
M  END
> <ID>
CPD_2677

$$$$
CPD_2682
  Mrv1822 09091914012D          

 29 31  0  0  0  0            999 V2000
   -0.1067   -2.5366    0.0000 C   0  0  0  0  0  0  0  0  0  0  0  0
    0.6078   -2.1241    0.0000 O   0  0  0  0  0  0  0  0  0  0  0  0
    0.6078   -1.2991    0.0000 C   0  0  0  0  0  0  0  0  0  0  0  0
   -0.1067   -0.8866    0.0000 C   0  0  0  0  0  0  0  0  0  0  0  0
   -0.1067   -0.0616    0.0000 C   0  0  0  0  0  0  0  0  0  0  0  0
    0.6078    0.3509    0.0000 C   0  0  0  0  0  0  0  0  0  0  0  0
    0.6078    1.1759    0.0000 Cl  0  0  0  0  0  0  0  0  0  0  0  0
    1.3222   -0.0616    0.0000 C   0  0  0  0  0  0  0  0  0  0  0  0
    1.3222   -0.8866    0.0000 C   0  0  0  0  0  0  0  0  0  0  0  0
    2.0367   -1.2991    0.0000 N   0  0  0  0  0  0  0  0  0  0  0  0
    2.0367   -2.1241    0.0000 C   0  0  0  0  0  0  0  0  0  0  0  0
    2.7041   -2.6090    0.0000 C   0  0  0  0  0  0  0  0  0  0  0  0
    2.4492   -3.3937    0.0000 N   0  0  0  0  0  0  0  0  0  0  0  0
    2.9341   -4.0611    0.0000 C   0  0  0  0  0  0  0  0  0  0  0  0
    1.6242   -3.3937    0.0000 C   0  0  0  0  0  0  0  0  0  0  0  0
    1.3693   -2.6090    0.0000 C   0  0  0  0  0  0  0  0  0  0  0  0
    1.1393   -4.0611    0.0000 C   0  0  0  0  0  0  0  0  0  0  0  0
    1.4748   -4.8148    0.0000 O   0  0  0  0  0  0  0  0  0  0  0  0
    0.3188   -3.9749    0.0000 O   0  0  0  0  0  0  0  0  0  0  0  0
    2.7512   -0.8866    0.0000 S   0  0  0  0  0  0  0  0  0  0  0  0
    3.1637   -1.6011    0.0000 O   0  0  0  0  0  0  0  0  0  0  0  0
    2.3387   -0.1721    0.0000 O   0  0  0  0  0  0  0  0  0  0  0  0
    3.4656   -0.4741    0.0000 C   0  0  0  0  0  0  0  0  0  0  0  0
    3.4656    0.3509    0.0000 C   0  0  0  0  0  0  0  0  0  0  0  0
    4.1801    0.7634    0.0000 C   0  0  0  0  0  0  0  0  0  0  0  0
    4.8946    0.3509    0.0000 C   0  0  0  0  0  0  0  0  0  0  0  0
    5.6091    0.7634    0.0000 F   0  0  0  0  0  0  0  0  0  0  0  0
    4.8946   -0.4741    0.0000 C   0  0  0  0  0  0  0  0  0  0  0  0
    4.1801   -0.8866    0.0000 C   0  0  0  0  0  0  0  0  0  0  0  0
  1  2  1  0  0  0  0
  2  3  1  0  0  0  0
  3  4  2  0  0  0  0
  4  5  1  0  0  0  0
  5  6  2  0  0  0  0
  6  7  1  0  0  0  0
  6  8  1  0  0  0  0
  8  9  2  0  0  0  0
  3  9  1  0  0  0  0
  9 10  1  0  0  0  0
 10 11  1  0  0  0  0
 11 12  2  0  0  0  0
 12 13  1  0  0  0  0
 13 14  1  0  0  0  0
 13 15  1  0  0  0  0
 15 16  2  0  0  0  0
 11 16  1  0  0  0  0
 15 17  1  0  0  0  0
 17 18  1  0  0  0  0
 17 19  2  0  0  0  0
 10 20  1  0  0  0  0
 20 21  2  0  0  0  0
 20 22  2  0  0  0  0
 20 23  1  0  0  0  0
 23 24  2  0  0  0  0
 24 25  1  0  0  0  0
 25 26  2  0  0  0  0
 26 27  1  0  0  0  0
 26 28  1  0  0  0  0
 28 29  2  0  0  0  0
 23 29  1  0  0  0  0
M  END
> <ID>
CPD_2682

$$$$
CPD_2687
  Mrv1822 09091914012D          

 30 32  0  0  0  0            999 V2000
    0.0000   -0.8250    0.0000 C   0  0  0  0  0  0  0  0  0  0  0  0
   -0.7145   -1.2375    0.0000 O   0  0  0  0  0  0  0  0  0  0  0  0
   -0.7145   -2.0625    0.0000 C   0  0  0  0  0  0  0  0  0  0  0  0
    0.0000   -2.4750    0.0000 C   0  0  0  0  0  0  0  0  0  0  0  0
    0.0000   -3.3000    0.0000 C   0  0  0  0  0  0  0  0  0  0  0  0
   -0.7145   -3.7125    0.0000 C   0  0  0  0  0  0  0  0  0  0  0  0
   -0.7145   -4.5375    0.0000 Cl  0  0  0  0  0  0  0  0  0  0  0  0
   -1.4289   -3.3000    0.0000 C   0  0  0  0  0  0  0  0  0  0  0  0
   -1.4289   -2.4750    0.0000 C   0  0  0  0  0  0  0  0  0  0  0  0
   -2.1434   -2.0625    0.0000 N   0  0  0  0  0  0  0  0  0  0  0  0
   -2.1434   -1.2375    0.0000 C   0  0  0  0  0  0  0  0  0  0  0  0
   -2.8579   -0.8250    0.0000 C   0  0  0  0  0  0  0  0  0  0  0  0
   -3.5724   -1.2375    0.0000 C   0  0  0  0  0  0  0  0  0  0  0  0
   -2.8579    0.0000    0.0000 C   0  0  0  0  0  0  0  0  0  0  0  0
   -3.5724    0.4125    0.0000 C   0  0  0  0  0  0  0  0  0  0  0  0
   -4.2868    0.8250    0.0000 N   0  0  0  0  0  0  0  0  0  0  0  0
   -2.1434    0.4125    0.0000 C   0  0  0  0  0  0  0  0  0  0  0  0
   -2.1434    1.2375    0.0000 N   0  0  0  0  0  0  0  0  0  0  0  0
   -1.4289   -0.0000    0.0000 N   0  0  0  0  0  0  0  0  0  0  0  0
   -1.4289   -0.8250    0.0000 C   0  0  0  0  0  0  0  0  0  0  0  0
   -2.8579   -2.4750    0.0000 S   0  0  0  0  0  0  0  0  0  0  0  0
   -3.2704   -1.7605    0.0000 O   0  0  0  0  0  0  0  0  0  0  0  0
   -2.4454   -3.1895    0.0000 O   0  0  0  0  0  0  0  0  0  0  0  0
   -3.5724   -2.8875    0.0000 C   0  0  0  0  0  0  0  0  0  0  0  0
   -3.5724   -3.7125    0.0000 C   0  0  0  0  0  0  0  0  0  0  0  0
   -4.2868   -4.1250    0.0000 C   0  0  0  0  0  0  0  0  0  0  0  0
   -5.0013   -3.7125    0.0000 C   0  0  0  0  0  0  0  0  0  0  0  0
   -5.7158   -4.1250    0.0000 F   0  0  0  0  0  0  0  0  0  0  0  0
   -5.0013   -2.8875    0.0000 C   0  0  0  0  0  0  0  0  0  0  0  0
   -4.2868   -2.4750    0.0000 C   0  0  0  0  0  0  0  0  0  0  0  0
  1  2  1  0  0  0  0
  2  3  1  0  0  0  0
  3  4  2  0  0  0  0
  4  5  1  0  0  0  0
  5  6  2  0  0  0  0
  6  7  1  0  0  0  0
  6  8  1  0  0  0  0
  8  9  2  0  0  0  0
  3  9  1  0  0  0  0
  9 10  1  0  0  0  0
 10 11  1  0  0  0  0
 11 12  2  0  0  0  0
 12 13  1  0  0  0  0
 12 14  1  0  0  0  0
 14 15  1  0  0  0  0
 15 16  3  0  0  0  0
 14 17  2  0  0  0  0
 17 18  1  0  0  0  0
 17 19  1  0  0  0  0
 19 20  2  0  0  0  0
 11 20  1  0  0  0  0
 10 21  1  0  0  0  0
 21 22  2  0  0  0  0
 21 23  2  0  0  0  0
 21 24  1  0  0  0  0
 24 25  2  0  0  0  0
 25 26  1  0  0  0  0
 26 27  2  0  0  0  0
 27 28  1  0  0  0  0
 27 29  1  0  0  0  0
 29 30  2  0  0  0  0
 24 30  1  0  0  0  0
M  END
> <ID>
CPD_2687

$$$$
CPD_2692
  Mrv1822 09091914012D          

 38 41  0  0  0  0            999 V2000
    2.1434   -7.8375    0.0000 F   0  0  0  0  0  0  0  0  0  0  0  0
    2.1434   -8.6625    0.0000 C   0  0  0  0  0  0  0  0  0  0  0  0
    2.8579   -9.0750    0.0000 C   0  0  0  0  0  0  0  0  0  0  0  0
    2.8579   -9.9000    0.0000 C   0  0  0  0  0  0  0  0  0  0  0  0
    2.1434  -10.3125    0.0000 C   0  0  0  0  0  0  0  0  0  0  0  0
    1.4289   -9.9000    0.0000 C   0  0  0  0  0  0  0  0  0  0  0  0
    0.7145  -10.3125    0.0000 F   0  0  0  0  0  0  0  0  0  0  0  0
    1.4289   -9.0750    0.0000 C   0  0  0  0  0  0  0  0  0  0  0  0
    0.7145   -8.6625    0.0000 N   0  0  0  0  0  0  0  0  0  0  0  0
    0.7145   -7.8375    0.0000 C   0  0  0  0  0  0  0  0  0  0  0  0
    1.4289   -7.4250    0.0000 O   0  0  0  0  0  0  0  0  0  0  0  0
    0.0000   -7.4250    0.0000 C   0  0  0  0  0  0  0  0  0  0  0  0
   -0.7145   -7.8375    0.0000 C   0  0  0  0  0  0  0  0  0  0  0  0
   -1.4289   -7.4250    0.0000 C   0  0  0  0  0  0  0  0  0  0  0  0
   -1.4289   -6.6000    0.0000 C   0  0  0  0  0  0  0  0  0  0  0  0
   -0.7145   -6.1875    0.0000 C   0  0  0  0  0  0  0  0  0  0  0  0
   -0.7145   -5.3625    0.0000 N   0  0  0  0  0  0  0  0  0  0  0  0
    0.0000   -4.9500    0.0000 C   0  0  0  0  0  0  0  0  0  0  0  0
    0.0000   -4.1250    0.0000 C   0  0  0  0  0  0  0  0  0  0  0  0
    0.7145   -3.7125    0.0000 C   0  0  0  0  0  0  0  0  0  0  0  0
    1.4289   -4.1250    0.0000 C   0  0  0  0  0  0  0  0  0  0  0  0
    1.4289   -4.9500    0.0000 C   0  0  0  0  0  0  0  0  0  0  0  0
    0.7145   -5.3625    0.0000 C   0  0  0  0  0  0  0  0  0  0  0  0
    2.1434   -3.7125    0.0000 C   0  0  0  0  0  0  0  0  0  0  0  0
    2.1434   -2.8875    0.0000 O   0  0  0  0  0  0  0  0  0  0  0  0
    2.8579   -4.1250    0.0000 O   0  0  0  0  0  0  0  0  0  0  0  0
    3.5724   -3.7125    0.0000 C   0  0  0  0  0  0  0  0  0  0  0  0
    4.2868   -4.1250    0.0000 C   0  0  0  0  0  0  0  0  0  0  0  0
    4.2868   -4.9500    0.0000 O   0  0  0  0  0  0  0  0  0  0  0  0
    5.0013   -3.7125    0.0000 N   0  0  0  0  0  0  0  0  0  0  0  0
    5.7158   -4.1250    0.0000 C   0  0  0  0  0  0  0  0  0  0  0  0
    6.4302   -3.7125    0.0000 C   0  0  0  0  0  0  0  0  0  0  0  0
    7.1447   -4.1250    0.0000 C   0  0  0  0  0  0  0  0  0  0  0  0
    7.1447   -4.9500    0.0000 C   0  0  0  0  0  0  0  0  0  0  0  0
    7.8592   -5.3625    0.0000 Cl  0  0  0  0  0  0  0  0  0  0  0  0
    6.4302   -5.3625    0.0000 C   0  0  0  0  0  0  0  0  0  0  0  0
    5.7158   -4.9500    0.0000 C   0  0  0  0  0  0  0  0  0  0  0  0
    0.0000   -6.6000    0.0000 C   0  0  0  0  0  0  0  0  0  0  0  0
  1  2  1  0  0  0  0
  2  3  2  0  0  0  0
  3  4  1  0  0  0  0
  4  5  2  0  0  0  0
  5  6  1  0  0  0  0
  6  7  1  0  0  0  0
  6  8  2  0  0  0  0
  2  8  1  0  0  0  0
  8  9  1  0  0  0  0
  9 10  1  0  0  0  0
 10 11  2  0  0  0  0
 10 12  1  0  0  0  0
 12 13  2  0  0  0  0
 13 14  1  0  0  0  0
 14 15  2  0  0  0  0
 15 16  1  0  0  0  0
 16 17  1  0  0  0  0
 17 18  1  0  0  0  0
 18 19  2  0  0  0  0
 19 20  1  0  0  0  0
 20 21  2  0  0  0  0
 21 22  1  0  0  0  0
 22 23  2  0  0  0  0
 18 23  1  0  0  0  0
 21 24  1  0  0  0  0
 24 25  2  0  0  0  0
 24 26  1  0  0  0  0
 26 27  1  0  0  0  0
 27 28  1  0  0  0  0
 28 29  2  0  0  0  0
 28 30  1  0  0  0  0
 30 31  1  0  0  0  0
 31 32  2  0  0  0  0
 32 33  1  0  0  0  0
 33 34  2  0  0  0  0
 34 35  1  0  0  0  0
 34 36  1  0  0  0  0
 36 37  2  0  0  0  0
 31 37  1  0  0  0  0
 16 38  2  0  0  0  0
 12 38  1  0  0  0  0
M  END
> <ID>
CPD_2692

$$$$
CPD_2697
  Mrv1822 09091914012D          

 24 26  0  0  0  0            999 V2000
    0.7145   -6.1875    0.0000 C   0  0  0  0  0  0  0  0  0  0  0  0
    1.4289   -6.6000    0.0000 C   0  0  0  0  0  0  0  0  0  0  0  0
    2.1434   -6.1875    0.0000 C   0  0  0  0  0  0  0  0  0  0  0  0
    2.8579   -6.6000    0.0000 N   0  0  0  0  0  0  0  0  0  0  0  0
    3.5724   -6.1875    0.0000 C   0  0  0  0  0  0  0  0  0  0  0  0
    3.5724   -5.3625    0.0000 O   0  0  0  0  0  0  0  0  0  0  0  0
    4.2868   -6.6000    0.0000 C   0  0  0  0  0  0  0  0  0  0  0  0
    5.0013   -6.1875    0.0000 C   0  0  0  0  0  0  0  0  0  0  0  0
    5.7158   -6.6000    0.0000 C   0  0  0  0  0  0  0  0  0  0  0  0
    6.4302   -6.1875    0.0000 N   0  0  0  0  0  0  0  0  0  0  0  0
    7.1447   -6.6000    0.0000 C   0  0  0  0  0  0  0  0  0  0  0  0
    7.1447   -7.4250    0.0000 N   0  0  0  0  0  0  0  0  0  0  0  0
    7.8592   -7.8375    0.0000 C   0  0  0  0  0  0  0  0  0  0  0  0
    8.5737   -7.4250    0.0000 C   0  0  0  0  0  0  0  0  0  0  0  0
    9.2881   -7.8375    0.0000 N   0  0  0  0  0  0  0  0  0  0  0  0
    9.2881   -8.6625    0.0000 C   0  0  0  0  0  0  0  0  0  0  0  0
    8.5737   -9.0750    0.0000 C   0  0  0  0  0  0  0  0  0  0  0  0
    7.8592   -8.6625    0.0000 N   0  0  0  0  0  0  0  0  0  0  0  0
    8.5737   -6.6000    0.0000 C   0  0  0  0  0  0  0  0  0  0  0  0
    9.2881   -6.1875    0.0000 O   0  0  0  0  0  0  0  0  0  0  0  0
    7.8592   -6.1875    0.0000 N   0  0  0  0  0  0  0  0  0  0  0  0
    5.7158   -7.4250    0.0000 C   0  0  0  0  0  0  0  0  0  0  0  0
    5.0013   -7.8375    0.0000 C   0  0  0  0  0  0  0  0  0  0  0  0
    4.2868   -7.4250    0.0000 C   0  0  0  0  0  0  0  0  0  0  0  0
  1  2  1  0  0  0  0
  2  3  1  0  0  0  0
  3  4  1  0  0  0  0
  4  5  1  0  0  0  0
  5  6  2  0  0  0  0
  5  7  1  0  0  0  0
  7  8  2  0  0  0  0
  8  9  1  0  0  0  0
  9 10  1  0  0  0  0
 10 11  1  0  0  0  0
 11 12  2  0  0  0  0
 12 13  1  0  0  0  0
 13 14  2  0  0  0  0
 14 15  1  0  0  0  0
 15 16  2  0  0  0  0
 16 17  1  0  0  0  0
 17 18  2  0  0  0  0
 13 18  1  0  0  0  0
 14 19  1  0  0  0  0
 19 20  1  0  0  0  0
 19 21  2  0  0  0  0
 11 21  1  0  0  0  0
  9 22  2  0  0  0  0
 22 23  1  0  0  0  0
 23 24  2  0  0  0  0
  7 24  1  0  0  0  0
M  END
> <ID>
CPD_2697

$$$$
CPD_2702
  Mrv1822 09091914012D          

 22 24  0  0  0  0            999 V2000
   -2.8579   -2.4750    0.0000 N   0  0  0  0  0  0  0  0  0  0  0  0
   -2.8579   -1.6500    0.0000 C   0  0  0  0  0  0  0  0  0  0  0  0
   -3.5724   -1.2375    0.0000 C   0  0  0  0  0  0  0  0  0  0  0  0
   -3.5724   -0.4125    0.0000 C   0  0  0  0  0  0  0  0  0  0  0  0
   -2.8579    0.0000    0.0000 C   0  0  0  0  0  0  0  0  0  0  0  0
   -2.8579    0.8250    0.0000 Br  0  0  0  0  0  0  0  0  0  0  0  0
   -2.1434   -0.4125    0.0000 C   0  0  0  0  0  0  0  0  0  0  0  0
   -2.1434   -1.2375    0.0000 C   0  0  0  0  0  0  0  0  0  0  0  0
   -1.4289   -1.6500    0.0000 N   0  0  0  0  0  0  0  0  0  0  0  0
   -0.7145   -1.2375    0.0000 C   0  0  0  0  0  0  0  0  0  0  0  0
    0.0000   -1.6500    0.0000 N   0  0  0  0  0  0  0  0  0  0  0  0
    0.7145   -1.2375    0.0000 C   0  0  0  0  0  0  0  0  0  0  0  0
    0.7145   -0.4125    0.0000 C   0  0  0  0  0  0  0  0  0  0  0  0
    1.4289   -0.0000    0.0000 N   0  0  0  0  0  0  0  0  0  0  0  0
    2.1434   -0.4125    0.0000 C   0  0  0  0  0  0  0  0  0  0  0  0
    2.1434   -1.2375    0.0000 C   0  0  0  0  0  0  0  0  0  0  0  0
    1.4289   -1.6500    0.0000 N   0  0  0  0  0  0  0  0  0  0  0  0
    0.0000   -0.0000    0.0000 C   0  0  0  0  0  0  0  0  0  0  0  0
    0.0000    0.8250    0.0000 O   0  0  0  0  0  0  0  0  0  0  0  0
   -0.7145   -0.4125    0.0000 N   0  0  0  0  0  0  0  0  0  0  0  0
   -4.2868   -1.6500    0.0000 C   0  0  0  0  0  0  0  0  0  0  0  0
   -5.0013   -2.0625    0.0000 N   0  0  0  0  0  0  0  0  0  0  0  0
  1  2  1  0  0  0  0
  2  3  2  0  0  0  0
  3  4  1  0  0  0  0
  4  5  2  0  0  0  0
  5  6  1  0  0  0  0
  5  7  1  0  0  0  0
  7  8  2  0  0  0  0
  2  8  1  0  0  0  0
  8  9  1  0  0  0  0
  9 10  1  0  0  0  0
 10 11  2  0  0  0  0
 11 12  1  0  0  0  0
 12 13  2  0  0  0  0
 13 14  1  0  0  0  0
 14 15  2  0  0  0  0
 15 16  1  0  0  0  0
 16 17  2  0  0  0  0
 12 17  1  0  0  0  0
 13 18  1  0  0  0  0
 18 19  1  0  0  0  0
 18 20  2  0  0  0  0
 10 20  1  0  0  0  0
  3 21  1  0  0  0  0
 21 22  3  0  0  0  0
M  END
> <ID>
CPD_2702

$$$$
CPD_2707
  Mrv1822 09091914012D          

 31 33  0  0  1  0            999 V2000
    3.2704    2.5263    0.0000 O   0  0  0  0  0  0  0  0  0  0  0  0
    2.8579    1.8118    0.0000 C   0  0  0  0  0  0  0  0  0  0  0  0
    2.0329    1.8118    0.0000 C   0  0  0  0  0  0  0  0  0  0  0  0
    1.6204    2.5263    0.0000 O   0  0  0  0  0  0  0  0  0  0  0  0
    1.6204    1.0974    0.0000 O   0  0  0  0  0  0  0  0  0  0  0  0
    3.2704    1.0974    0.0000 C   0  0  0  0  0  0  0  0  0  0  0  0
    2.8579    0.3829    0.0000 C   0  0  0  0  0  0  0  0  0  0  0  0
    3.2704   -0.3316    0.0000 C   0  0  0  0  0  0  0  0  0  0  0  0
    2.8579   -1.0461    0.0000 N   0  0  0  0  0  0  0  0  0  0  0  0
    3.2704   -1.7605    0.0000 C   0  0  2  0  0  0  0  0  0  0  0  0
    2.8579   -2.4750    0.0000 C   0  0  0  0  0  0  0  0  0  0  0  0
    2.0329   -2.4750    0.0000 C   0  0  0  0  0  0  0  0  0  0  0  0
    1.6204   -3.1895    0.0000 C   0  0  0  0  0  0  0  0  0  0  0  0
    0.7954   -3.1895    0.0000 C   0  0  0  0  0  0  0  0  0  0  0  0
    0.3829   -2.4750    0.0000 C   0  0  0  0  0  0  0  0  0  0  0  0
   -0.4421   -2.4750    0.0000 F   0  0  0  0  0  0  0  0  0  0  0  0
    0.7954   -1.7605    0.0000 C   0  0  0  0  0  0  0  0  0  0  0  0
    1.6204   -1.7605    0.0000 C   0  0  0  0  0  0  0  0  0  0  0  0
    4.0954   -1.7605    0.0000 C   0  0  0  0  0  0  0  0  0  0  0  0
    4.5079   -1.0461    0.0000 O   0  0  0  0  0  0  0  0  0  0  0  0
    4.5079   -2.4750    0.0000 O   0  0  0  0  0  0  0  0  0  0  0  0
    5.3329   -2.4750    0.0000 C   0  0  0  0  0  0  0  0  0  0  0  0
    5.7454   -3.1895    0.0000 C   0  0  0  0  0  0  0  0  0  0  0  0
    6.5704   -3.1895    0.0000 C   0  0  0  0  0  0  0  0  0  0  0  0
    6.9829   -3.9039    0.0000 C   0  0  0  0  0  0  0  0  0  0  0  0
    6.5704   -4.6184    0.0000 C   0  0  0  0  0  0  0  0  0  0  0  0
    5.7454   -4.6184    0.0000 C   0  0  0  0  0  0  0  0  0  0  0  0
    5.3329   -3.9039    0.0000 C   0  0  0  0  0  0  0  0  0  0  0  0
    4.0954   -0.3316    0.0000 C   0  0  0  0  0  0  0  0  0  0  0  0
    4.5079    0.3829    0.0000 C   0  0  0  0  0  0  0  0  0  0  0  0
    4.0954    1.0974    0.0000 C   0  0  0  0  0  0  0  0  0  0  0  0
  1  2  1  0  0  0  0
  2  3  1  0  0  0  0
  3  4  1  0  0  0  0
  3  5  2  0  0  0  0
  2  6  1  0  0  0  0
  6  7  2  0  0  0  0
  7  8  1  0  0  0  0
  8  9  1  0  0  0  0
 10  9  1  1  0  0  0
 10 11  1  0  0  0  0
 11 12  1  0  0  0  0
 12 13  2  0  0  0  0
 13 14  1  0  0  0  0
 14 15  2  0  0  0  0
 15 16  1  0  0  0  0
 15 17  1  0  0  0  0
 17 18  2  0  0  0  0
 12 18  1  0  0  0  0
 10 19  1  0  0  0  0
 19 20  2  0  0  0  0
 19 21  1  0  0  0  0
 21 22  1  0  0  0  0
 22 23  1  0  0  0  0
 23 24  2  0  0  0  0
 24 25  1  0  0  0  0
 25 26  2  0  0  0  0
 26 27  1  0  0  0  0
 27 28  2  0  0  0  0
 23 28  1  0  0  0  0
  8 29  2  0  0  0  0
 29 30  1  0  0  0  0
 30 31  2  0  0  0  0
  6 31  1  0  0  0  0
M  END
> <ID>
CPD_2707

$$$$
CPD_2712
  Mrv1822 09091914012D          

 33 36  0  0  1  0            999 V2000
    5.3666    4.4229    0.0000 N   0  0  0  0  0  0  0  0  0  0  0  0
    4.6992    3.9380    0.0000 C   0  0  0  0  0  0  0  0  0  0  0  0
    4.7854    3.1175    0.0000 C   0  0  0  0  0  0  0  0  0  0  0  0
    5.4999    2.7050    0.0000 C   0  0  0  0  0  0  0  0  0  0  0  0
    5.3284    1.8981    0.0000 C   0  0  0  0  0  0  0  0  0  0  0  0
    4.5079    1.8118    0.0000 C   0  0  0  0  0  0  0  0  0  0  0  0
    4.1723    2.5655    0.0000 O   0  0  0  0  0  0  0  0  0  0  0  0
    4.0954    1.0974    0.0000 C   0  0  0  0  0  0  0  0  0  0  0  0
    4.5079    0.3829    0.0000 C   0  0  0  0  0  0  0  0  0  0  0  0
    4.0954   -0.3316    0.0000 C   0  0  0  0  0  0  0  0  0  0  0  0
    3.2704   -0.3316    0.0000 C   0  0  0  0  0  0  0  0  0  0  0  0
    2.8579   -1.0461    0.0000 N   0  0  0  0  0  0  0  0  0  0  0  0
    3.2704   -1.7605    0.0000 C   0  0  2  0  0  0  0  0  0  0  0  0
    2.8579   -2.4750    0.0000 C   0  0  0  0  0  0  0  0  0  0  0  0
    2.0329   -2.4750    0.0000 C   0  0  0  0  0  0  0  0  0  0  0  0
    1.6204   -3.1895    0.0000 C   0  0  0  0  0  0  0  0  0  0  0  0
    0.7954   -3.1895    0.0000 C   0  0  0  0  0  0  0  0  0  0  0  0
    0.3829   -2.4750    0.0000 C   0  0  0  0  0  0  0  0  0  0  0  0
   -0.4421   -2.4750    0.0000 F   0  0  0  0  0  0  0  0  0  0  0  0
    0.7954   -1.7605    0.0000 C   0  0  0  0  0  0  0  0  0  0  0  0
    1.6204   -1.7605    0.0000 C   0  0  0  0  0  0  0  0  0  0  0  0
    4.0954   -1.7605    0.0000 C   0  0  0  0  0  0  0  0  0  0  0  0
    4.5079   -1.0461    0.0000 O   0  0  0  0  0  0  0  0  0  0  0  0
    4.5079   -2.4750    0.0000 O   0  0  0  0  0  0  0  0  0  0  0  0
    5.3329   -2.4750    0.0000 C   0  0  0  0  0  0  0  0  0  0  0  0
    5.7454   -3.1895    0.0000 C   0  0  0  0  0  0  0  0  0  0  0  0
    6.5704   -3.1895    0.0000 C   0  0  0  0  0  0  0  0  0  0  0  0
    6.9829   -3.9039    0.0000 C   0  0  0  0  0  0  0  0  0  0  0  0
    6.5704   -4.6184    0.0000 C   0  0  0  0  0  0  0  0  0  0  0  0
    5.7454   -4.6184    0.0000 C   0  0  0  0  0  0  0  0  0  0  0  0
    5.3329   -3.9039    0.0000 C   0  0  0  0  0  0  0  0  0  0  0  0
    2.8579    0.3829    0.0000 C   0  0  0  0  0  0  0  0  0  0  0  0
    3.2704    1.0974    0.0000 C   0  0  0  0  0  0  0  0  0  0  0  0
  1  2  1  0  0  0  0
  2  3  1  0  0  0  0
  3  4  2  0  0  0  0
  4  5  1  0  0  0  0
  5  6  2  0  0  0  0
  6  7  1  0  0  0  0
  3  7  1  0  0  0  0
  6  8  1  0  0  0  0
  8  9  2  0  0  0  0
  9 10  1  0  0  0  0
 10 11  2  0  0  0  0
 11 12  1  0  0  0  0
 13 12  1  1  0  0  0
 13 14  1  0  0  0  0
 14 15  1  0  0  0  0
 15 16  2  0  0  0  0
 16 17  1  0  0  0  0
 17 18  2  0  0  0  0
 18 19  1  0  0  0  0
 18 20  1  0  0  0  0
 20 21  2  0  0  0  0
 15 21  1  0  0  0  0
 13 22  1  0  0  0  0
 22 23  2  0  0  0  0
 22 24  1  0  0  0  0
 24 25  1  0  0  0  0
 25 26  1  0  0  0  0
 26 27  2  0  0  0  0
 27 28  1  0  0  0  0
 28 29  2  0  0  0  0
 29 30  1  0  0  0  0
 30 31  2  0  0  0  0
 26 31  1  0  0  0  0
 11 32  1  0  0  0  0
 32 33  2  0  0  0  0
  8 33  1  0  0  0  0
M  END
> <ID>
CPD_2712

$$$$
CPD_2717
  Mrv1822 09091914012D          

 33 35  0  0  1  0            999 V2000
    4.5079    3.2408    0.0000 O   0  0  0  0  0  0  0  0  0  0  0  0
    4.0954    2.5263    0.0000 C   0  0  0  0  0  0  0  0  0  0  0  0
    3.2704    2.5263    0.0000 O   0  0  0  0  0  0  0  0  0  0  0  0
    4.5079    1.8118    0.0000 C   0  0  0  0  0  0  0  0  0  0  0  0
    4.0954    1.0974    0.0000 C   0  0  0  0  0  0  0  0  0  0  0  0
    4.5079    0.3829    0.0000 C   0  0  0  0  0  0  0  0  0  0  0  0
    5.3329    0.3829    0.0000 F   0  0  0  0  0  0  0  0  0  0  0  0
    4.0954   -0.3316    0.0000 C   0  0  0  0  0  0  0  0  0  0  0  0
    3.2704   -0.3316    0.0000 C   0  0  0  0  0  0  0  0  0  0  0  0
    2.8579   -1.0461    0.0000 N   0  0  0  0  0  0  0  0  0  0  0  0
    3.2704   -1.7605    0.0000 C   0  0  2  0  0  0  0  0  0  0  0  0
    2.8579   -2.4750    0.0000 C   0  0  0  0  0  0  0  0  0  0  0  0
    2.0329   -2.4750    0.0000 C   0  0  0  0  0  0  0  0  0  0  0  0
    1.6204   -3.1895    0.0000 C   0  0  0  0  0  0  0  0  0  0  0  0
    0.7954   -3.1895    0.0000 C   0  0  0  0  0  0  0  0  0  0  0  0
    0.3829   -2.4750    0.0000 C   0  0  0  0  0  0  0  0  0  0  0  0
   -0.4421   -2.4750    0.0000 F   0  0  0  0  0  0  0  0  0  0  0  0
    0.7954   -1.7605    0.0000 C   0  0  0  0  0  0  0  0  0  0  0  0
    1.6204   -1.7605    0.0000 C   0  0  0  0  0  0  0  0  0  0  0  0
    4.0954   -1.7605    0.0000 C   0  0  0  0  0  0  0  0  0  0  0  0
    4.5079   -1.0461    0.0000 O   0  0  0  0  0  0  0  0  0  0  0  0
    4.5079   -2.4750    0.0000 O   0  0  0  0  0  0  0  0  0  0  0  0
    5.3329   -2.4750    0.0000 C   0  0  0  0  0  0  0  0  0  0  0  0
    5.7454   -3.1895    0.0000 C   0  0  0  0  0  0  0  0  0  0  0  0
    6.5704   -3.1895    0.0000 C   0  0  0  0  0  0  0  0  0  0  0  0
    6.9829   -3.9039    0.0000 C   0  0  0  0  0  0  0  0  0  0  0  0
    6.5704   -4.6184    0.0000 C   0  0  0  0  0  0  0  0  0  0  0  0
    5.7454   -4.6184    0.0000 C   0  0  0  0  0  0  0  0  0  0  0  0
    5.3329   -3.9039    0.0000 C   0  0  0  0  0  0  0  0  0  0  0  0
    2.8579    0.3829    0.0000 C   0  0  0  0  0  0  0  0  0  0  0  0
    2.0329    0.3829    0.0000 F   0  0  0  0  0  0  0  0  0  0  0  0
    3.2704    1.0974    0.0000 C   0  0  0  0  0  0  0  0  0  0  0  0
    2.8579    1.8118    0.0000 F   0  0  0  0  0  0  0  0  0  0  0  0
  1  2  1  0  0  0  0
  2  3  2  0  0  0  0
  2  4  1  0  0  0  0
  4  5  1  0  0  0  0
  5  6  2  0  0  0  0
  6  7  1  0  0  0  0
  6  8  1  0  0  0  0
  8  9  2  0  0  0  0
  9 10  1  0  0  0  0
 11 10  1  1  0  0  0
 11 12  1  0  0  0  0
 12 13  1  0  0  0  0
 13 14  2  0  0  0  0
 14 15  1  0  0  0  0
 15 16  2  0  0  0  0
 16 17  1  0  0  0  0
 16 18  1  0  0  0  0
 18 19  2  0  0  0  0
 13 19  1  0  0  0  0
 11 20  1  0  0  0  0
 20 21  2  0  0  0  0
 20 22  1  0  0  0  0
 22 23  1  0  0  0  0
 23 24  1  0  0  0  0
 24 25  2  0  0  0  0
 25 26  1  0  0  0  0
 26 27  2  0  0  0  0
 27 28  1  0  0  0  0
 28 29  2  0  0  0  0
 24 29  1  0  0  0  0
  9 30  1  0  0  0  0
 30 31  1  0  0  0  0
 30 32  2  0  0  0  0
  5 32  1  0  0  0  0
 32 33  1  0  0  0  0
M  END
> <ID>
CPD_2717

$$$$
CPD_2722
  Mrv1822 09091914012D          

 21 23  0  0  0  0            999 V2000
    0.0768   -2.3215    0.0000 O   0  0  0  0  0  0  0  0  0  0  0  0
    0.8838   -2.1500    0.0000 C   0  0  0  0  0  0  0  0  0  0  0  0
    1.4358   -2.7631    0.0000 O   0  0  0  0  0  0  0  0  0  0  0  0
    1.1387   -1.3654    0.0000 C   0  0  0  0  0  0  0  0  0  0  0  0
    0.6538   -0.6979    0.0000 C   0  0  0  0  0  0  0  0  0  0  0  0
    1.1387   -0.0305    0.0000 N   0  0  0  0  0  0  0  0  0  0  0  0
    1.9233   -0.2854    0.0000 C   0  0  0  0  0  0  0  0  0  0  0  0
    2.6378    0.1271    0.0000 C   0  0  0  0  0  0  0  0  0  0  0  0
    3.3523   -0.2854    0.0000 C   0  0  0  0  0  0  0  0  0  0  0  0
    3.3523   -1.1104    0.0000 C   0  0  0  0  0  0  0  0  0  0  0  0
    2.6378   -1.5229    0.0000 C   0  0  0  0  0  0  0  0  0  0  0  0
    1.9233   -1.1104    0.0000 N   0  0  0  0  0  0  0  0  0  0  0  0
    4.0668   -1.5229    0.0000 N   0  0  0  0  0  0  0  0  0  0  0  0
    4.0668   -2.3479    0.0000 C   0  0  0  0  0  0  0  0  0  0  0  0
    4.7812   -2.7604    0.0000 C   0  0  0  0  0  0  0  0  0  0  0  0
    5.4957   -2.3479    0.0000 F   0  0  0  0  0  0  0  0  0  0  0  0
    4.7812   -3.5854    0.0000 C   0  0  0  0  0  0  0  0  0  0  0  0
    4.0668   -3.9979    0.0000 C   0  0  0  0  0  0  0  0  0  0  0  0
    3.3523   -3.5854    0.0000 C   0  0  0  0  0  0  0  0  0  0  0  0
    2.6378   -3.9979    0.0000 Br  0  0  0  0  0  0  0  0  0  0  0  0
    3.3523   -2.7604    0.0000 C   0  0  0  0  0  0  0  0  0  0  0  0
  1  2  1  0  0  0  0
  2  3  2  0  0  0  0
  2  4  1  0  0  0  0
  4  5  2  0  0  0  0
  5  6  1  0  0  0  0
  6  7  2  0  0  0  0
  7  8  1  0  0  0  0
  8  9  1  0  0  0  0
  9 10  2  0  0  0  0
 10 11  1  0  0  0  0
 11 12  1  0  0  0  0
  4 12  1  0  0  0  0
  7 12  1  0  0  0  0
 10 13  1  0  0  0  0
 13 14  1  0  0  0  0
 14 15  2  0  0  0  0
 15 16  1  0  0  0  0
 15 17  1  0  0  0  0
 17 18  2  0  0  0  0
 18 19  1  0  0  0  0
 19 20  1  0  0  0  0
 19 21  2  0  0  0  0
 14 21  1  0  0  0  0
M  END
> <ID>
CPD_2722

$$$$
CPD_2727
  Mrv1822 09091914012D          

 22 24  0  0  0  0            999 V2000
    0.0768   -2.3215    0.0000 O   0  0  0  0  0  0  0  0  0  0  0  0
    0.8838   -2.1500    0.0000 C   0  0  0  0  0  0  0  0  0  0  0  0
    1.4358   -2.7631    0.0000 O   0  0  0  0  0  0  0  0  0  0  0  0
    1.1387   -1.3654    0.0000 C   0  0  0  0  0  0  0  0  0  0  0  0
    0.6538   -0.6979    0.0000 C   0  0  0  0  0  0  0  0  0  0  0  0
    1.1387   -0.0305    0.0000 N   0  0  0  0  0  0  0  0  0  0  0  0
    1.9233   -0.2854    0.0000 C   0  0  0  0  0  0  0  0  0  0  0  0
    2.6378    0.1271    0.0000 C   0  0  0  0  0  0  0  0  0  0  0  0
    3.3523   -0.2854    0.0000 C   0  0  0  0  0  0  0  0  0  0  0  0
    3.3523   -1.1104    0.0000 C   0  0  0  0  0  0  0  0  0  0  0  0
    2.6378   -1.5229    0.0000 C   0  0  0  0  0  0  0  0  0  0  0  0
    1.9233   -1.1104    0.0000 N   0  0  0  0  0  0  0  0  0  0  0  0
    4.0668   -1.5229    0.0000 N   0  0  0  0  0  0  0  0  0  0  0  0
    4.0668   -2.3479    0.0000 C   0  0  0  0  0  0  0  0  0  0  0  0
    4.7812   -2.7604    0.0000 C   0  0  0  0  0  0  0  0  0  0  0  0
    4.7812   -3.5854    0.0000 C   0  0  0  0  0  0  0  0  0  0  0  0
    4.0668   -3.9979    0.0000 C   0  0  0  0  0  0  0  0  0  0  0  0
    4.0668   -4.8229    0.0000 C   0  0  0  0  0  0  0  0  0  0  0  0
    4.7812   -5.2354    0.0000 Zn  0  0  0  0  0  0  0  0  0  0  0  0
    5.4957   -5.6479    0.0000 Cl  0  0  0  0  0  0  0  0  0  0  0  0
    3.3523   -3.5854    0.0000 C   0  0  0  0  0  0  0  0  0  0  0  0
    3.3523   -2.7604    0.0000 C   0  0  0  0  0  0  0  0  0  0  0  0
  1  2  1  0  0  0  0
  2  3  2  0  0  0  0
  2  4  1  0  0  0  0
  4  5  2  0  0  0  0
  5  6  1  0  0  0  0
  6  7  2  0  0  0  0
  7  8  1  0  0  0  0
  8  9  1  0  0  0  0
  9 10  2  0  0  0  0
 10 11  1  0  0  0  0
 11 12  1  0  0  0  0
  4 12  1  0  0  0  0
  7 12  1  0  0  0  0
 10 13  1  0  0  0  0
 13 14  1  0  0  0  0
 14 15  2  0  0  0  0
 15 16  1  0  0  0  0
 16 17  2  0  0  0  0
 17 18  1  0  0  0  0
 18 19  1  0  0  0  0
 19 20  1  0  0  0  0
 17 21  1  0  0  0  0
 21 22  2  0  0  0  0
 14 22  1  0  0  0  0
M  END
> <ID>
CPD_2727

$$$$
CPD_2732
  Mrv1822 09091914012D          

 31 33  0  0  0  0            999 V2000
   -1.4289    0.0000    0.0000 C   0  0  0  0  0  0  0  0  0  0  0  0
   -0.7145   -0.4125    0.0000 C   0  0  0  0  0  0  0  0  0  0  0  0
   -0.0000    0.0000    0.0000 O   0  0  0  0  0  0  0  0  0  0  0  0
   -0.7145   -1.2375    0.0000 N   0  0  0  0  0  0  0  0  0  0  0  0
    0.0000   -1.6500    0.0000 C   0  0  0  0  0  0  0  0  0  0  0  0
    0.0000   -2.4750    0.0000 C   0  0  0  0  0  0  0  0  0  0  0  0
    0.7145   -2.8875    0.0000 O   0  0  0  0  0  0  0  0  0  0  0  0
    0.7145   -3.7125    0.0000 C   0  0  0  0  0  0  0  0  0  0  0  0
    1.4289   -4.1250    0.0000 C   0  0  0  0  0  0  0  0  0  0  0  0
    2.1434   -3.7125    0.0000 O   0  0  0  0  0  0  0  0  0  0  0  0
    2.8579   -4.1250    0.0000 C   0  0  0  0  0  0  0  0  0  0  0  0
    3.5724   -3.7125    0.0000 C   0  0  0  0  0  0  0  0  0  0  0  0
    4.2868   -4.1250    0.0000 N   0  0  0  0  0  0  0  0  0  0  0  0
    5.0013   -3.7125    0.0000 C   0  0  0  0  0  0  0  0  0  0  0  0
    5.0013   -2.8875    0.0000 C   0  0  0  0  0  0  0  0  0  0  0  0
    5.7158   -4.1250    0.0000 O   0  0  0  0  0  0  0  0  0  0  0  0
    1.4289   -4.9500    0.0000 C   0  0  0  0  0  0  0  0  0  0  0  0
    0.7145   -5.3625    0.0000 C   0  0  0  0  0  0  0  0  0  0  0  0
    0.7145   -6.1875    0.0000 N   0  0  0  0  0  0  0  0  0  0  0  0
    0.0000   -6.6000    0.0000 C   0  0  0  0  0  0  0  0  0  0  0  0
    0.0000   -7.4250    0.0000 C   0  0  0  0  0  0  0  0  0  0  0  0
   -0.7145   -7.8375    0.0000 C   0  0  0  0  0  0  0  0  0  0  0  0
   -0.7145   -8.6625    0.0000 Cl  0  0  0  0  0  0  0  0  0  0  0  0
   -1.4289   -7.4250    0.0000 C   0  0  0  0  0  0  0  0  0  0  0  0
   -1.4289   -6.6000    0.0000 C   0  0  0  0  0  0  0  0  0  0  0  0
   -2.0420   -6.0480    0.0000 N   0  0  0  0  0  0  0  0  0  0  0  0
   -1.7065   -5.2943    0.0000 S   0  0  0  0  0  0  0  0  0  0  0  0
   -0.8860   -5.3805    0.0000 N   0  0  0  0  0  0  0  0  0  0  0  0
   -0.7145   -6.1875    0.0000 C   0  0  0  0  0  0  0  0  0  0  0  0
    0.0000   -4.9500    0.0000 C   0  0  0  0  0  0  0  0  0  0  0  0
    0.0000   -4.1250    0.0000 C   0  0  0  0  0  0  0  0  0  0  0  0
  1  2  1  0  0  0  0
  2  3  2  0  0  0  0
  2  4  1  0  0  0  0
  4  5  1  0  0  0  0
  5  6  1  0  0  0  0
  6  7  1  0  0  0  0
  7  8  1  0  0  0  0
  8  9  2  0  0  0  0
  9 10  1  0  0  0  0
 10 11  1  0  0  0  0
 11 12  1  0  0  0  0
 12 13  1  0  0  0  0
 13 14  1  0  0  0  0
 14 15  1  0  0  0  0
 14 16  2  0  0  0  0
  9 17  1  0  0  0  0
 17 18  2  0  0  0  0
 18 19  1  0  0  0  0
 19 20  1  0  0  0  0
 20 21  2  0  0  0  0
 21 22  1  0  0  0  0
 22 23  1  0  0  0  0
 22 24  2  0  0  0  0
 24 25  1  0  0  0  0
 25 26  2  0  0  0  0
 26 27  1  0  0  0  0
 27 28  1  0  0  0  0
 28 29  2  0  0  0  0
 20 29  1  0  0  0  0
 25 29  1  0  0  0  0
 18 30  1  0  0  0  0
 30 31  2  0  0  0  0
  8 31  1  0  0  0  0
M  END
> <ID>
CPD_2732

$$$$
CPD_2737
  Mrv1822 09091914012D          

 33 34  0  0  0  0            999 V2000
   -6.4302   -0.4125    0.0000 C   0  0  0  0  0  0  0  0  0  0  0  0
   -5.7158   -0.0000    0.0000 O   0  0  0  0  0  0  0  0  0  0  0  0
   -5.7158    0.8250    0.0000 C   0  0  0  0  0  0  0  0  0  0  0  0
   -6.4302    1.2375    0.0000 O   0  0  0  0  0  0  0  0  0  0  0  0
   -5.0013    1.2375    0.0000 C   0  0  0  0  0  0  0  0  0  0  0  0
   -5.0013    2.0625    0.0000 O   0  0  0  0  0  0  0  0  0  0  0  0
   -4.2868    2.4750    0.0000 C   0  0  0  0  0  0  0  0  0  0  0  0
   -4.2868    3.3000    0.0000 C   0  0  0  0  0  0  0  0  0  0  0  0
   -3.5724    3.7125    0.0000 C   0  0  0  0  0  0  0  0  0  0  0  0
   -2.8579    3.3000    0.0000 C   0  0  0  0  0  0  0  0  0  0  0  0
   -2.1434    3.7125    0.0000 N   0  0  0  0  0  0  0  0  0  0  0  0
   -1.4289    3.3000    0.0000 C   0  0  0  0  0  0  0  0  0  0  0  0
   -0.7145    3.7125    0.0000 C   0  0  0  0  0  0  0  0  0  0  0  0
    0.0000    3.3000    0.0000 C   0  0  0  0  0  0  0  0  0  0  0  0
    0.7145    3.7125    0.0000 O   0  0  0  0  0  0  0  0  0  0  0  0
    1.4289    3.3000    0.0000 C   0  0  0  0  0  0  0  0  0  0  0  0
    2.1434    3.7125    0.0000 C   0  0  0  0  0  0  0  0  0  0  0  0
    2.8579    3.3000    0.0000 N   0  0  0  0  0  0  0  0  0  0  0  0
    3.5724    3.7125    0.0000 C   0  0  0  0  0  0  0  0  0  0  0  0
    3.5724    4.5375    0.0000 C   0  0  0  0  0  0  0  0  0  0  0  0
    4.2868    3.3000    0.0000 O   0  0  0  0  0  0  0  0  0  0  0  0
    0.0000    2.4750    0.0000 C   0  0  0  0  0  0  0  0  0  0  0  0
    0.7145    2.0625    0.0000 O   0  0  0  0  0  0  0  0  0  0  0  0
    1.4289    2.4750    0.0000 C   0  0  0  0  0  0  0  0  0  0  0  0
    2.1434    2.0625    0.0000 C   0  0  0  0  0  0  0  0  0  0  0  0
    2.8579    2.4750    0.0000 N   0  0  0  0  0  0  0  0  0  0  0  0
    3.5724    2.0625    0.0000 C   0  0  0  0  0  0  0  0  0  0  0  0
    4.2868    2.4750    0.0000 C   0  0  0  0  0  0  0  0  0  0  0  0
    3.5724    1.2375    0.0000 O   0  0  0  0  0  0  0  0  0  0  0  0
   -0.7145    2.0625    0.0000 C   0  0  0  0  0  0  0  0  0  0  0  0
   -1.4289    2.4750    0.0000 C   0  0  0  0  0  0  0  0  0  0  0  0
   -2.8579    2.4750    0.0000 C   0  0  0  0  0  0  0  0  0  0  0  0
   -3.5724    2.0625    0.0000 C   0  0  0  0  0  0  0  0  0  0  0  0
  1  2  1  0  0  0  0
  2  3  1  0  0  0  0
  3  4  2  0  0  0  0
  3  5  1  0  0  0  0
  5  6  1  0  0  0  0
  6  7  1  0  0  0  0
  7  8  2  0  0  0  0
  8  9  1  0  0  0  0
  9 10  2  0  0  0  0
 10 11  1  0  0  0  0
 11 12  1  0  0  0  0
 12 13  2  0  0  0  0
 13 14  1  0  0  0  0
 14 15  1  0  0  0  0
 15 16  1  0  0  0  0
 16 17  1  0  0  0  0
 17 18  1  0  0  0  0
 18 19  1  0  0  0  0
 19 20  1  0  0  0  0
 19 21  2  0  0  0  0
 14 22  2  0  0  0  0
 22 23  1  0  0  0  0
 23 24  1  0  0  0  0
 24 25  1  0  0  0  0
 25 26  1  0  0  0  0
 26 27  1  0  0  0  0
 27 28  1  0  0  0  0
 27 29  2  0  0  0  0
 22 30  1  0  0  0  0
 30 31  2  0  0  0  0
 12 31  1  0  0  0  0
 10 32  1  0  0  0  0
 32 33  2  0  0  0  0
  7 33  1  0  0  0  0
M  END
> <ID>
CPD_2737

$$$$
CPD_2742
  Mrv1822 09091914012D          

 31 32  0  0  0  0            999 V2000
   -4.2868   -0.0000    0.0000 C   0  0  0  0  0  0  0  0  0  0  0  0
   -4.2868    0.8250    0.0000 C   0  0  0  0  0  0  0  0  0  0  0  0
   -3.5724    1.2375    0.0000 N   0  0  0  0  0  0  0  0  0  0  0  0
   -3.5724    2.0625    0.0000 C   0  0  0  0  0  0  0  0  0  0  0  0
   -4.2868    2.4750    0.0000 C   0  0  0  0  0  0  0  0  0  0  0  0
   -5.0013    2.0625    0.0000 N   0  0  0  0  0  0  0  0  0  0  0  0
   -4.2868    3.3000    0.0000 C   0  0  0  0  0  0  0  0  0  0  0  0
   -3.5724    3.7125    0.0000 C   0  0  0  0  0  0  0  0  0  0  0  0
   -2.8579    3.3000    0.0000 C   0  0  0  0  0  0  0  0  0  0  0  0
   -2.1434    3.7125    0.0000 N   0  0  0  0  0  0  0  0  0  0  0  0
   -1.4289    3.3000    0.0000 C   0  0  0  0  0  0  0  0  0  0  0  0
   -0.7145    3.7125    0.0000 C   0  0  0  0  0  0  0  0  0  0  0  0
    0.0000    3.3000    0.0000 C   0  0  0  0  0  0  0  0  0  0  0  0
    0.7145    3.7125    0.0000 O   0  0  0  0  0  0  0  0  0  0  0  0
    1.4289    3.3000    0.0000 C   0  0  0  0  0  0  0  0  0  0  0  0
    2.1434    3.7125    0.0000 C   0  0  0  0  0  0  0  0  0  0  0  0
    2.8579    3.3000    0.0000 N   0  0  0  0  0  0  0  0  0  0  0  0
    3.5724    3.7125    0.0000 C   0  0  0  0  0  0  0  0  0  0  0  0
    3.5724    4.5375    0.0000 C   0  0  0  0  0  0  0  0  0  0  0  0
    4.2868    3.3000    0.0000 O   0  0  0  0  0  0  0  0  0  0  0  0
    0.0000    2.4750    0.0000 C   0  0  0  0  0  0  0  0  0  0  0  0
    0.7145    2.0625    0.0000 O   0  0  0  0  0  0  0  0  0  0  0  0
    1.4289    2.4750    0.0000 C   0  0  0  0  0  0  0  0  0  0  0  0
    2.1434    2.0625    0.0000 C   0  0  0  0  0  0  0  0  0  0  0  0
    2.8579    2.4750    0.0000 N   0  0  0  0  0  0  0  0  0  0  0  0
    3.5724    2.0625    0.0000 C   0  0  0  0  0  0  0  0  0  0  0  0
    4.2868    2.4750    0.0000 C   0  0  0  0  0  0  0  0  0  0  0  0
    3.5724    1.2375    0.0000 O   0  0  0  0  0  0  0  0  0  0  0  0
   -0.7145    2.0625    0.0000 C   0  0  0  0  0  0  0  0  0  0  0  0
   -1.4289    2.4750    0.0000 C   0  0  0  0  0  0  0  0  0  0  0  0
   -2.8579    2.4750    0.0000 C   0  0  0  0  0  0  0  0  0  0  0  0
  1  2  1  0  0  0  0
  2  3  1  0  0  0  0
  3  4  1  0  0  0  0
  4  5  2  0  0  0  0
  5  6  1  0  0  0  0
  5  7  1  0  0  0  0
  7  8  2  0  0  0  0
  8  9  1  0  0  0  0
  9 10  1  0  0  0  0
 10 11  1  0  0  0  0
 11 12  2  0  0  0  0
 12 13  1  0  0  0  0
 13 14  1  0  0  0  0
 14 15  1  0  0  0  0
 15 16  1  0  0  0  0
 16 17  1  0  0  0  0
 17 18  1  0  0  0  0
 18 19  1  0  0  0  0
 18 20  2  0  0  0  0
 13 21  2  0  0  0  0
 21 22  1  0  0  0  0
 22 23  1  0  0  0  0
 23 24  1  0  0  0  0
 24 25  1  0  0  0  0
 25 26  1  0  0  0  0
 26 27  1  0  0  0  0
 26 28  2  0  0  0  0
 21 29  1  0  0  0  0
 29 30  2  0  0  0  0
 11 30  1  0  0  0  0
  9 31  2  0  0  0  0
  4 31  1  0  0  0  0
M  END
> <ID>
CPD_2742

$$$$
CPD_2747
  Mrv1822 09091914012D          

 27 29  0  0  0  0            999 V2000
    5.7158   -3.3000    0.0000 C   0  0  0  0  0  0  0  0  0  0  0  0
    6.4302   -2.8875    0.0000 C   0  0  0  0  0  0  0  0  0  0  0  0
    6.4302   -2.0625    0.0000 O   0  0  0  0  0  0  0  0  0  0  0  0
    7.1447   -3.3000    0.0000 N   0  0  0  0  0  0  0  0  0  0  0  0
    7.8592   -2.8875    0.0000 C   0  0  0  0  0  0  0  0  0  0  0  0
    8.5737   -3.3000    0.0000 C   0  0  0  0  0  0  0  0  0  0  0  0
    9.2881   -2.8875    0.0000 O   0  0  0  0  0  0  0  0  0  0  0  0
   10.0026   -3.3000    0.0000 C   0  0  0  0  0  0  0  0  0  0  0  0
   10.7171   -2.8875    0.0000 C   0  0  0  0  0  0  0  0  0  0  0  0
   11.4315   -3.3000    0.0000 C   0  0  0  0  0  0  0  0  0  0  0  0
   11.4315   -4.1250    0.0000 C   0  0  0  0  0  0  0  0  0  0  0  0
   12.1460   -4.5375    0.0000 N   0  0  0  0  0  0  0  0  0  0  0  0
   12.8605   -4.1250    0.0000 C   0  0  0  0  0  0  0  0  0  0  0  0
   13.2730   -3.4105    0.0000 C   0  0  0  0  0  0  0  0  0  0  0  0
   13.6855   -4.1250    0.0000 C   0  0  0  0  0  0  0  0  0  0  0  0
   12.1460   -5.3625    0.0000 C   0  0  0  0  0  0  0  0  0  0  0  0
   12.8605   -5.7750    0.0000 C   0  0  0  0  0  0  0  0  0  0  0  0
   13.5749   -5.3625    0.0000 C   0  0  0  0  0  0  0  0  0  0  0  0
   14.2894   -4.9500    0.0000 N   0  0  0  0  0  0  0  0  0  0  0  0
   12.8605   -6.6000    0.0000 C   0  0  0  0  0  0  0  0  0  0  0  0
   13.5749   -7.0125    0.0000 Br  0  0  0  0  0  0  0  0  0  0  0  0
   12.1460   -7.0125    0.0000 C   0  0  0  0  0  0  0  0  0  0  0  0
   11.4315   -6.6000    0.0000 C   0  0  0  0  0  0  0  0  0  0  0  0
   11.4315   -5.7750    0.0000 C   0  0  0  0  0  0  0  0  0  0  0  0
   10.7171   -4.5375    0.0000 C   0  0  0  0  0  0  0  0  0  0  0  0
   10.7171   -5.3625    0.0000 C   0  0  0  0  0  0  0  0  0  0  0  0
   10.0026   -4.1250    0.0000 C   0  0  0  0  0  0  0  0  0  0  0  0
  1  2  1  0  0  0  0
  2  3  2  0  0  0  0
  2  4  1  0  0  0  0
  4  5  1  0  0  0  0
  5  6  1  0  0  0  0
  6  7  1  0  0  0  0
  7  8  1  0  0  0  0
  8  9  2  0  0  0  0
  9 10  1  0  0  0  0
 10 11  2  0  0  0  0
 11 12  1  0  0  0  0
 12 13  1  0  0  0  0
 13 14  1  0  0  0  0
 14 15  1  0  0  0  0
 13 15  1  0  0  0  0
 12 16  1  0  0  0  0
 16 17  2  0  0  0  0
 17 18  1  0  0  0  0
 18 19  3  0  0  0  0
 17 20  1  0  0  0  0
 20 21  1  0  0  0  0
 20 22  2  0  0  0  0
 22 23  1  0  0  0  0
 23 24  2  0  0  0  0
 16 24  1  0  0  0  0
 11 25  1  0  0  0  0
 25 26  1  0  0  0  0
 25 27  2  0  0  0  0
  8 27  1  0  0  0  0
M  END
> <ID>
CPD_2747

$$$$
CPD_2752
  Mrv1822 09091914012D          

 31 33  0  0  0  0            999 V2000
    5.7158    0.0000    0.0000 C   0  0  0  0  0  0  0  0  0  0  0  0
    5.0013   -0.4125    0.0000 C   0  0  0  0  0  0  0  0  0  0  0  0
    4.5888    0.3020    0.0000 C   0  0  0  0  0  0  0  0  0  0  0  0
    5.4138   -1.1270    0.0000 C   0  0  0  0  0  0  0  0  0  0  0  0
    4.2868   -0.8250    0.0000 O   0  0  0  0  0  0  0  0  0  0  0  0
    4.2868   -1.6500    0.0000 C   0  0  0  0  0  0  0  0  0  0  0  0
    5.0013   -2.0625    0.0000 O   0  0  0  0  0  0  0  0  0  0  0  0
    3.5724   -2.0625    0.0000 N   0  0  0  0  0  0  0  0  0  0  0  0
    3.5724   -2.8875    0.0000 C   0  0  0  0  0  0  0  0  0  0  0  0
    4.2868   -3.3000    0.0000 C   0  0  0  0  0  0  0  0  0  0  0  0
    5.0013   -2.8875    0.0000 C   0  0  0  0  0  0  0  0  0  0  0  0
    5.7158   -3.3000    0.0000 O   0  0  0  0  0  0  0  0  0  0  0  0
    2.8579   -3.3000    0.0000 C   0  0  0  0  0  0  0  0  0  0  0  0
    2.8579   -4.1250    0.0000 C   0  0  0  0  0  0  0  0  0  0  0  0
    2.1434   -4.5375    0.0000 C   0  0  0  0  0  0  0  0  0  0  0  0
    1.4289   -4.1250    0.0000 C   0  0  0  0  0  0  0  0  0  0  0  0
    1.4289   -3.3000    0.0000 C   0  0  0  0  0  0  0  0  0  0  0  0
    2.1434   -2.8875    0.0000 C   0  0  0  0  0  0  0  0  0  0  0  0
    0.7145   -4.5375    0.0000 N   0  0  0  0  0  0  0  0  0  0  0  0
    0.7145   -5.3625    0.0000 C   0  0  0  0  0  0  0  0  0  0  0  0
    1.1270   -6.0770    0.0000 C   0  0  0  0  0  0  0  0  0  0  0  0
    0.3020   -6.0770    0.0000 C   0  0  0  0  0  0  0  0  0  0  0  0
    0.0000   -4.1250    0.0000 C   0  0  0  0  0  0  0  0  0  0  0  0
   -0.7145   -4.5375    0.0000 C   0  0  0  0  0  0  0  0  0  0  0  0
   -0.7145   -5.3625    0.0000 C   0  0  0  0  0  0  0  0  0  0  0  0
   -0.7145   -6.1875    0.0000 N   0  0  0  0  0  0  0  0  0  0  0  0
   -1.4289   -4.1250    0.0000 C   0  0  0  0  0  0  0  0  0  0  0  0
   -2.1434   -4.5375    0.0000 Br  0  0  0  0  0  0  0  0  0  0  0  0
   -1.4289   -3.3000    0.0000 C   0  0  0  0  0  0  0  0  0  0  0  0
   -0.7145   -2.8875    0.0000 C   0  0  0  0  0  0  0  0  0  0  0  0
    0.0000   -3.3000    0.0000 C   0  0  0  0  0  0  0  0  0  0  0  0
  1  2  1  0  0  0  0
  2  3  1  0  0  0  0
  2  4  1  0  0  0  0
  2  5  1  0  0  0  0
  5  6  1  0  0  0  0
  6  7  2  0  0  0  0
  6  8  1  0  0  0  0
  8  9  1  0  0  0  0
  9 10  1  0  0  0  0
 10 11  1  0  0  0  0
 11 12  1  0  0  0  0
  9 13  1  0  0  0  0
 13 14  2  0  0  0  0
 14 15  1  0  0  0  0
 15 16  2  0  0  0  0
 16 17  1  0  0  0  0
 17 18  2  0  0  0  0
 13 18  1  0  0  0  0
 16 19  1  0  0  0  0
 19 20  1  0  0  0  0
 20 21  1  0  0  0  0
 21 22  1  0  0  0  0
 20 22  1  0  0  0  0
 19 23  1  0  0  0  0
 23 24  2  0  0  0  0
 24 25  1  0  0  0  0
 25 26  3  0  0  0  0
 24 27  1  0  0  0  0
 27 28  1  0  0  0  0
 27 29  2  0  0  0  0
 29 30  1  0  0  0  0
 30 31  2  0  0  0  0
 23 31  1  0  0  0  0
M  END
> <ID>
CPD_2752

$$$$
CPD_2757
  Mrv1822 09091914012D          

 21 23  0  0  0  0            999 V2000
   -1.0164    2.3645    0.0000 Cl  0  0  0  0  0  0  0  0  0  0  0  0
   -1.0164    3.1895    0.0000 Zn  0  0  0  0  0  0  0  0  0  0  0  0
   -1.0164    4.0145    0.0000 C   0  0  0  0  0  0  0  0  0  0  0  0
   -1.7309    4.4270    0.0000 C   0  0  0  0  0  0  0  0  0  0  0  0
   -2.4454    4.0145    0.0000 C   0  0  0  0  0  0  0  0  0  0  0  0
   -3.1599    4.4270    0.0000 C   0  0  0  0  0  0  0  0  0  0  0  0
   -3.1599    5.2520    0.0000 C   0  0  0  0  0  0  0  0  0  0  0  0
   -2.4454    5.6645    0.0000 C   0  0  0  0  0  0  0  0  0  0  0  0
   -1.7309    5.2520    0.0000 C   0  0  0  0  0  0  0  0  0  0  0  0
   -1.0164    5.6645    0.0000 N   0  0  0  0  0  0  0  0  0  0  0  0
   -0.3020    5.2520    0.0000 C   0  0  0  0  0  0  0  0  0  0  0  0
    0.4125    5.6645    0.0000 C   0  0  0  0  0  0  0  0  0  0  0  0
    1.1270    5.2520    0.0000 N   0  0  0  0  0  0  0  0  0  0  0  0
    1.1270    4.4270    0.0000 C   0  0  0  0  0  0  0  0  0  0  0  0
    1.8414    4.0145    0.0000 N   0  0  0  0  0  0  0  0  0  0  0  0
    1.8414    3.1895    0.0000 C   0  0  0  0  0  0  0  0  0  0  0  0
    2.2539    2.4750    0.0000 C   0  0  0  0  0  0  0  0  0  0  0  0
    1.4289    2.4750    0.0000 C   0  0  0  0  0  0  0  0  0  0  0  0
    0.4125    4.0145    0.0000 C   0  0  0  0  0  0  0  0  0  0  0  0
    0.4125    3.1895    0.0000 Br  0  0  0  0  0  0  0  0  0  0  0  0
   -0.3020    4.4270    0.0000 C   0  0  0  0  0  0  0  0  0  0  0  0
  1  2  1  0  0  0  0
  2  3  1  0  0  0  0
  3  4  1  0  0  0  0
  4  5  2  0  0  0  0
  5  6  1  0  0  0  0
  6  7  2  0  0  0  0
  7  8  1  0  0  0  0
  8  9  2  0  0  0  0
  4  9  1  0  0  0  0
  9 10  1  0  0  0  0
 10 11  1  0  0  0  0
 11 12  2  0  0  0  0
 12 13  1  0  0  0  0
 13 14  2  0  0  0  0
 14 15  1  0  0  0  0
 15 16  1  0  0  0  0
 16 17  1  0  0  0  0
 17 18  1  0  0  0  0
 16 18  1  0  0  0  0
 14 19  1  0  0  0  0
 19 20  1  0  0  0  0
 19 21  2  0  0  0  0
 11 21  1  0  0  0  0
M  END
> <ID>
CPD_2757

$$$$
CPD_2762
  Mrv1822 09091914012D          

 26 29  0  0  1  0            999 V2000
   -0.7275    8.3402    0.0000 O   0  0  0  0  0  0  0  0  0  0  0  0
   -1.5480    8.4265    0.0000 C   0  0  0  0  0  0  0  0  0  0  0  0
   -1.8835    9.1801    0.0000 O   0  0  0  0  0  0  0  0  0  0  0  0
   -2.0329    7.7590    0.0000 C   0  0  2  0  0  0  0  0  0  0  0  0
   -2.8579    7.7590    0.0000 C   0  0  0  0  0  0  0  0  0  0  0  0
   -3.1128    6.9744    0.0000 S   0  0  0  0  0  0  0  0  0  0  0  0
   -2.4454    6.4895    0.0000 C   0  0  0  0  0  0  0  0  0  0  0  0
   -1.7779    6.9744    0.0000 N   0  0  0  0  0  0  0  0  0  0  0  0
   -2.4454    5.6645    0.0000 C   0  0  0  0  0  0  0  0  0  0  0  0
   -3.1599    5.2520    0.0000 C   0  0  0  0  0  0  0  0  0  0  0  0
   -3.1599    4.4270    0.0000 C   0  0  0  0  0  0  0  0  0  0  0  0
   -2.4454    4.0145    0.0000 C   0  0  0  0  0  0  0  0  0  0  0  0
   -1.7309    4.4270    0.0000 C   0  0  0  0  0  0  0  0  0  0  0  0
   -1.7309    5.2520    0.0000 C   0  0  0  0  0  0  0  0  0  0  0  0
   -1.0164    5.6645    0.0000 N   0  0  0  0  0  0  0  0  0  0  0  0
   -0.3020    5.2520    0.0000 C   0  0  0  0  0  0  0  0  0  0  0  0
    0.4125    5.6645    0.0000 C   0  0  0  0  0  0  0  0  0  0  0  0
    1.1270    5.2520    0.0000 N   0  0  0  0  0  0  0  0  0  0  0  0
    1.1270    4.4270    0.0000 C   0  0  0  0  0  0  0  0  0  0  0  0
    1.8414    4.0145    0.0000 N   0  0  0  0  0  0  0  0  0  0  0  0
    1.8414    3.1895    0.0000 C   0  0  0  0  0  0  0  0  0  0  0  0
    2.2539    2.4750    0.0000 C   0  0  0  0  0  0  0  0  0  0  0  0
    1.4289    2.4750    0.0000 C   0  0  0  0  0  0  0  0  0  0  0  0
    0.4125    4.0145    0.0000 C   0  0  0  0  0  0  0  0  0  0  0  0
    0.4125    3.1895    0.0000 Br  0  0  0  0  0  0  0  0  0  0  0  0
   -0.3020    4.4270    0.0000 C   0  0  0  0  0  0  0  0  0  0  0  0
  1  2  1  0  0  0  0
  2  3  2  0  0  0  0
  4  2  1  1  0  0  0
  4  5  1  0  0  0  0
  5  6  1  0  0  0  0
  6  7  1  0  0  0  0
  7  8  1  0  0  0  0
  4  8  1  0  0  0  0
  7  9  1  0  0  0  0
  9 10  2  0  0  0  0
 10 11  1  0  0  0  0
 11 12  2  0  0  0  0
 12 13  1  0  0  0  0
 13 14  2  0  0  0  0
  9 14  1  0  0  0  0
 14 15  1  0  0  0  0
 15 16  1  0  0  0  0
 16 17  2  0  0  0  0
 17 18  1  0  0  0  0
 18 19  2  0  0  0  0
 19 20  1  0  0  0  0
 20 21  1  0  0  0  0
 21 22  1  0  0  0  0
 22 23  1  0  0  0  0
 21 23  1  0  0  0  0
 19 24  1  0  0  0  0
 24 25  1  0  0  0  0
 24 26  2  0  0  0  0
 16 26  1  0  0  0  0
M  END
> <ID>
CPD_2762

$$$$
CPD_2767
  Mrv1822 09091914012D          

 30 32  0  0  0  0            999 V2000
   -1.8414   -1.7605    0.0000 C   0  0  0  0  0  0  0  0  0  0  0  0
   -1.4289   -2.4750    0.0000 C   0  0  0  0  0  0  0  0  0  0  0  0
   -0.6039   -2.4750    0.0000 C   0  0  0  0  0  0  0  0  0  0  0  0
   -0.1914   -3.1895    0.0000 C   0  0  0  0  0  0  0  0  0  0  0  0
    0.6336   -3.1895    0.0000 N   0  0  0  0  0  0  0  0  0  0  0  0
    1.0461   -3.9039    0.0000 C   0  0  0  0  0  0  0  0  0  0  0  0
    1.8711   -3.9039    0.0000 C   0  0  0  0  0  0  0  0  0  0  0  0
    2.2836   -4.6184    0.0000 C   0  0  0  0  0  0  0  0  0  0  0  0
    1.8711   -5.3329    0.0000 C   0  0  0  0  0  0  0  0  0  0  0  0
    2.2836   -6.0474    0.0000 Cl  0  0  0  0  0  0  0  0  0  0  0  0
    1.0461   -5.3329    0.0000 C   0  0  0  0  0  0  0  0  0  0  0  0
    0.6336   -4.6184    0.0000 C   0  0  0  0  0  0  0  0  0  0  0  0
    0.6336   -6.0474    0.0000 C   0  0  0  0  0  0  0  0  0  0  0  0
   -0.1869   -6.1336    0.0000 C   0  0  0  0  0  0  0  0  0  0  0  0
   -0.3584   -6.9406    0.0000 C   0  0  0  0  0  0  0  0  0  0  0  0
    0.3560   -7.3531    0.0000 N   0  0  0  0  0  0  0  0  0  0  0  0
    0.9691   -6.8010    0.0000 N   0  0  0  0  0  0  0  0  0  0  0  0
   -0.7390   -5.5205    0.0000 C   0  0  0  0  0  0  0  0  0  0  0  0
   -1.5459   -5.6920    0.0000 O   0  0  0  0  0  0  0  0  0  0  0  0
   -0.4840   -4.7359    0.0000 O   0  0  0  0  0  0  0  0  0  0  0  0
    1.0461   -2.4750    0.0000 S   0  0  0  0  0  0  0  0  0  0  0  0
    1.7605   -2.8875    0.0000 O   0  0  0  0  0  0  0  0  0  0  0  0
    0.3316   -2.0625    0.0000 O   0  0  0  0  0  0  0  0  0  0  0  0
    1.4586   -1.7605    0.0000 C   0  0  0  0  0  0  0  0  0  0  0  0
    1.0461   -1.0461    0.0000 C   0  0  0  0  0  0  0  0  0  0  0  0
    1.4586   -0.3316    0.0000 C   0  0  0  0  0  0  0  0  0  0  0  0
    2.2836   -0.3316    0.0000 C   0  0  0  0  0  0  0  0  0  0  0  0
    2.6961   -1.0461    0.0000 C   0  0  0  0  0  0  0  0  0  0  0  0
    2.2836   -1.7605    0.0000 C   0  0  0  0  0  0  0  0  0  0  0  0
    2.6961   -2.4750    0.0000 N   0  0  0  0  0  0  0  0  0  0  0  0
  1  2  1  0  0  0  0
  2  3  1  0  0  0  0
  3  4  1  0  0  0  0
  4  5  1  0  0  0  0
  5  6  1  0  0  0  0
  6  7  2  0  0  0  0
  7  8  1  0  0  0  0
  8  9  2  0  0  0  0
  9 10  1  0  0  0  0
  9 11  1  0  0  0  0
 11 12  2  0  0  0  0
  6 12  1  0  0  0  0
 11 13  1  0  0  0  0
 13 14  2  0  0  0  0
 14 15  1  0  0  0  0
 15 16  2  0  0  0  0
 16 17  1  0  0  0  0
 13 17  1  0  0  0  0
 14 18  1  0  0  0  0
 18 19  1  0  0  0  0
 18 20  2  0  0  0  0
  5 21  1  0  0  0  0
 21 22  2  0  0  0  0
 21 23  2  0  0  0  0
 21 24  1  0  0  0  0
 24 25  2  0  0  0  0
 25 26  1  0  0  0  0
 26 27  2  0  0  0  0
 27 28  1  0  0  0  0
 28 29  2  0  0  0  0
 24 29  1  0  0  0  0
 29 30  1  0  0  0  0
M  END
> <ID>
CPD_2767

$$$$
CPD_2772
  Mrv1822 09091914012D          

 28 29  0  0  0  0            999 V2000
   -1.8414   -1.7605    0.0000 C   0  0  0  0  0  0  0  0  0  0  0  0
   -1.4289   -2.4750    0.0000 C   0  0  0  0  0  0  0  0  0  0  0  0
   -0.6039   -2.4750    0.0000 C   0  0  0  0  0  0  0  0  0  0  0  0
   -0.1914   -3.1895    0.0000 C   0  0  0  0  0  0  0  0  0  0  0  0
    0.6336   -3.1895    0.0000 N   0  0  0  0  0  0  0  0  0  0  0  0
    1.0461   -3.9039    0.0000 C   0  0  0  0  0  0  0  0  0  0  0  0
    1.8711   -3.9039    0.0000 C   0  0  0  0  0  0  0  0  0  0  0  0
    2.2836   -4.6184    0.0000 C   0  0  0  0  0  0  0  0  0  0  0  0
    1.8711   -5.3329    0.0000 C   0  0  0  0  0  0  0  0  0  0  0  0
    2.2836   -6.0474    0.0000 Cl  0  0  0  0  0  0  0  0  0  0  0  0
    1.0461   -5.3329    0.0000 C   0  0  0  0  0  0  0  0  0  0  0  0
    0.6336   -4.6184    0.0000 C   0  0  0  0  0  0  0  0  0  0  0  0
   -0.1914   -4.6184    0.0000 S   0  0  0  0  0  0  0  0  0  0  0  0
   -0.1914   -5.4434    0.0000 O   0  0  0  0  0  0  0  0  0  0  0  0
   -0.1914   -3.7934    0.0000 O   0  0  0  0  0  0  0  0  0  0  0  0
   -1.0164   -4.6184    0.0000 C   0  0  0  0  0  0  0  0  0  0  0  0
   -1.4289   -5.3329    0.0000 C   0  0  0  0  0  0  0  0  0  0  0  0
   -1.8414   -6.0474    0.0000 N   0  0  0  0  0  0  0  0  0  0  0  0
    1.0461   -2.4750    0.0000 S   0  0  0  0  0  0  0  0  0  0  0  0
    1.7605   -2.8875    0.0000 O   0  0  0  0  0  0  0  0  0  0  0  0
    0.3316   -2.0625    0.0000 O   0  0  0  0  0  0  0  0  0  0  0  0
    1.4586   -1.7605    0.0000 C   0  0  0  0  0  0  0  0  0  0  0  0
    1.0461   -1.0461    0.0000 C   0  0  0  0  0  0  0  0  0  0  0  0
    1.4586   -0.3316    0.0000 C   0  0  0  0  0  0  0  0  0  0  0  0
    2.2836   -0.3316    0.0000 C   0  0  0  0  0  0  0  0  0  0  0  0
    2.6961   -1.0461    0.0000 C   0  0  0  0  0  0  0  0  0  0  0  0
    2.2836   -1.7605    0.0000 C   0  0  0  0  0  0  0  0  0  0  0  0
    2.6961   -2.4750    0.0000 N   0  0  0  0  0  0  0  0  0  0  0  0
  1  2  1  0  0  0  0
  2  3  1  0  0  0  0
  3  4  1  0  0  0  0
  4  5  1  0  0  0  0
  5  6  1  0  0  0  0
  6  7  2  0  0  0  0
  7  8  1  0  0  0  0
  8  9  2  0  0  0  0
  9 10  1  0  0  0  0
  9 11  1  0  0  0  0
 11 12  2  0  0  0  0
  6 12  1  0  0  0  0
 12 13  1  0  0  0  0
 13 14  2  0  0  0  0
 13 15  2  0  0  0  0
 13 16  1  0  0  0  0
 16 17  1  0  0  0  0
 17 18  3  0  0  0  0
  5 19  1  0  0  0  0
 19 20  2  0  0  0  0
 19 21  2  0  0  0  0
 19 22  1  0  0  0  0
 22 23  2  0  0  0  0
 23 24  1  0  0  0  0
 24 25  2  0  0  0  0
 25 26  1  0  0  0  0
 26 27  2  0  0  0  0
 22 27  1  0  0  0  0
 27 28  1  0  0  0  0
M  END
> <ID>
CPD_2772

$$$$
CPD_2777
  Mrv1822 09091914012D          

 32 34  0  0  0  0            999 V2000
    2.8579    0.0000    0.0000 C   0  0  0  0  0  0  0  0  0  0  0  0
    2.1434   -0.4125    0.0000 O   0  0  0  0  0  0  0  0  0  0  0  0
    2.1434   -1.2375    0.0000 C   0  0  0  0  0  0  0  0  0  0  0  0
    2.8579   -1.6500    0.0000 C   0  0  0  0  0  0  0  0  0  0  0  0
    2.8579   -2.4750    0.0000 C   0  0  0  0  0  0  0  0  0  0  0  0
    3.5724   -2.8875    0.0000 O   0  0  0  0  0  0  0  0  0  0  0  0
    4.2868   -2.4750    0.0000 C   0  0  0  0  0  0  0  0  0  0  0  0
    2.1434   -2.8875    0.0000 C   0  0  0  0  0  0  0  0  0  0  0  0
    1.4289   -2.4750    0.0000 C   0  0  0  0  0  0  0  0  0  0  0  0
    1.4289   -1.6500    0.0000 C   0  0  0  0  0  0  0  0  0  0  0  0
    0.7145   -1.2375    0.0000 N   0  0  0  0  0  0  0  0  0  0  0  0
    0.7145   -0.4125    0.0000 C   0  0  0  0  0  0  0  0  0  0  0  0
    0.0000    0.0000    0.0000 O   0  0  0  0  0  0  0  0  0  0  0  0
    1.4289    0.0000    0.0000 C   0  0  0  0  0  0  0  0  0  0  0  0
    1.4289    0.8250    0.0000 N   0  0  0  0  0  0  0  0  0  0  0  0
    2.1434   -3.7125    0.0000 N   0  0  0  0  0  0  0  0  0  0  0  0
    2.8579   -4.1250    0.0000 C   0  0  0  0  0  0  0  0  0  0  0  0
    3.5724   -3.7125    0.0000 C   0  0  0  0  0  0  0  0  0  0  0  0
    4.2868   -4.1250    0.0000 C   0  0  0  0  0  0  0  0  0  0  0  0
    4.2868   -4.9500    0.0000 C   0  0  0  0  0  0  0  0  0  0  0  0
    3.5724   -5.3625    0.0000 C   0  0  0  0  0  0  0  0  0  0  0  0
    2.8579   -4.9500    0.0000 C   0  0  0  0  0  0  0  0  0  0  0  0
    1.4289   -4.1250    0.0000 C   0  0  0  0  0  0  0  0  0  0  0  0
    1.4289   -4.9500    0.0000 C   0  0  0  0  0  0  0  0  0  0  0  0
    2.1434   -5.3625    0.0000 N   0  0  0  0  0  0  0  0  0  0  0  0
    0.7145   -5.3625    0.0000 C   0  0  0  0  0  0  0  0  0  0  0  0
   -0.0000   -4.9500    0.0000 C   0  0  0  0  0  0  0  0  0  0  0  0
   -0.7145   -5.3625    0.0000 Br  0  0  0  0  0  0  0  0  0  0  0  0
   -0.0000   -4.1250    0.0000 C   0  0  0  0  0  0  0  0  0  0  0  0
   -0.7145   -3.7125    0.0000 F   0  0  0  0  0  0  0  0  0  0  0  0
    0.7145   -3.7125    0.0000 C   0  0  0  0  0  0  0  0  0  0  0  0
    0.7145   -2.8875    0.0000 F   0  0  0  0  0  0  0  0  0  0  0  0
  1  2  1  0  0  0  0
  2  3  1  0  0  0  0
  3  4  2  0  0  0  0
  4  5  1  0  0  0  0
  5  6  1  0  0  0  0
  6  7  1  0  0  0  0
  5  8  2  0  0  0  0
  8  9  1  0  0  0  0
  9 10  2  0  0  0  0
  3 10  1  0  0  0  0
 10 11  1  0  0  0  0
 11 12  1  0  0  0  0
 12 13  2  0  0  0  0
 12 14  1  0  0  0  0
 14 15  1  0  0  0  0
  8 16  1  0  0  0  0
 16 17  1  0  0  0  0
 17 18  1  0  0  0  0
 18 19  1  0  0  0  0
 19 20  1  0  0  0  0
 20 21  1  0  0  0  0
 21 22  1  0  0  0  0
 17 22  1  0  0  0  0
 16 23  1  0  0  0  0
 23 24  2  0  0  0  0
 24 25  1  0  0  0  0
 24 26  1  0  0  0  0
 26 27  2  0  0  0  0
 27 28  1  0  0  0  0
 27 29  1  0  0  0  0
 29 30  1  0  0  0  0
 29 31  2  0  0  0  0
 23 31  1  0  0  0  0
 31 32  1  0  0  0  0
M  END
> <ID>
CPD_2777

$$$$
CPD_2782
  Mrv1822 09091914012D          

 29 32  0  0  0  0            999 V2000
   -3.2640   -0.9494    0.0000 C   0  0  0  0  0  0  0  0  0  0  0  0
   -3.0091   -0.1648    0.0000 C   0  0  0  0  0  0  0  0  0  0  0  0
   -3.5611    0.4483    0.0000 C   0  0  0  0  0  0  0  0  0  0  0  0
   -2.2021    0.0067    0.0000 N   0  0  0  0  0  0  0  0  0  0  0  0
   -1.6501   -0.6064    0.0000 C   0  0  0  0  0  0  0  0  0  0  0  0
   -1.9050   -1.3910    0.0000 C   0  0  0  0  0  0  0  0  0  0  0  0
   -1.3530   -2.0041    0.0000 C   0  0  0  0  0  0  0  0  0  0  0  0
   -0.5460   -1.8326    0.0000 C   0  0  0  0  0  0  0  0  0  0  0  0
    0.1215   -2.3175    0.0000 N   0  0  0  0  0  0  0  0  0  0  0  0
    0.7889   -1.8326    0.0000 C   0  0  0  0  0  0  0  0  0  0  0  0
    0.5340   -1.0479    0.0000 C   0  0  0  0  0  0  0  0  0  0  0  0
    1.0860   -0.4349    0.0000 C   0  0  0  0  0  0  0  0  0  0  0  0
    1.8930   -0.6064    0.0000 C   0  0  0  0  0  0  0  0  0  0  0  0
    2.1479   -1.3910    0.0000 C   0  0  0  0  0  0  0  0  0  0  0  0
    1.5959   -2.0041    0.0000 C   0  0  0  0  0  0  0  0  0  0  0  0
    1.8508   -2.7887    0.0000 C   0  0  0  0  0  0  0  0  0  0  0  0
    2.6578   -2.9602    0.0000 N   0  0  0  0  0  0  0  0  0  0  0  0
    1.2988   -3.4018    0.0000 O   0  0  0  0  0  0  0  0  0  0  0  0
   -0.2910   -1.0479    0.0000 C   0  0  0  0  0  0  0  0  0  0  0  0
   -0.8431   -0.4349    0.0000 C   0  0  0  0  0  0  0  0  0  0  0  0
   -1.9471    0.7913    0.0000 C   0  0  0  0  0  0  0  0  0  0  0  0
   -2.4992    1.4044    0.0000 C   0  0  0  0  0  0  0  0  0  0  0  0
   -3.3061    1.2329    0.0000 C   0  0  0  0  0  0  0  0  0  0  0  0
   -4.1131    1.0614    0.0000 N   0  0  0  0  0  0  0  0  0  0  0  0
   -2.2442    2.1891    0.0000 C   0  0  0  0  0  0  0  0  0  0  0  0
   -2.7963    2.8021    0.0000 Br  0  0  0  0  0  0  0  0  0  0  0  0
   -1.4373    2.3606    0.0000 C   0  0  0  0  0  0  0  0  0  0  0  0
   -0.8852    1.7475    0.0000 C   0  0  0  0  0  0  0  0  0  0  0  0
   -1.1402    0.9629    0.0000 C   0  0  0  0  0  0  0  0  0  0  0  0
  1  2  1  0  0  0  0
  2  3  1  0  0  0  0
  2  4  1  0  0  0  0
  4  5  1  0  0  0  0
  5  6  2  0  0  0  0
  6  7  1  0  0  0  0
  7  8  2  0  0  0  0
  8  9  1  0  0  0  0
  9 10  1  0  0  0  0
 10 11  2  0  0  0  0
 11 12  1  0  0  0  0
 12 13  1  0  0  0  0
 13 14  1  0  0  0  0
 14 15  1  0  0  0  0
 10 15  1  0  0  0  0
 15 16  1  0  0  0  0
 16 17  1  0  0  0  0
 16 18  2  0  0  0  0
 11 19  1  0  0  0  0
  8 19  1  0  0  0  0
 19 20  2  0  0  0  0
  5 20  1  0  0  0  0
  4 21  1  0  0  0  0
 21 22  2  0  0  0  0
 22 23  1  0  0  0  0
 23 24  3  0  0  0  0
 22 25  1  0  0  0  0
 25 26  1  0  0  0  0
 25 27  2  0  0  0  0
 27 28  1  0  0  0  0
 28 29  2  0  0  0  0
 21 29  1  0  0  0  0
M  END
> <ID>
CPD_2782

$$$$
CPD_2787
  Mrv1822 09091914012D          

 33 36  0  0  0  0            999 V2000
   -0.3801   -5.0030    0.0000 C   0  0  0  0  0  0  0  0  0  0  0  0
   -0.9321   -4.3899    0.0000 C   0  0  0  0  0  0  0  0  0  0  0  0
   -1.7391   -4.5614    0.0000 C   0  0  0  0  0  0  0  0  0  0  0  0
   -0.6772   -3.6053    0.0000 N   0  0  0  0  0  0  0  0  0  0  0  0
    0.1298   -3.4337    0.0000 C   0  0  0  0  0  0  0  0  0  0  0  0
    0.3848   -2.6491    0.0000 C   0  0  0  0  0  0  0  0  0  0  0  0
    1.1917   -2.4776    0.0000 C   0  0  0  0  0  0  0  0  0  0  0  0
    1.7438   -3.0907    0.0000 C   0  0  0  0  0  0  0  0  0  0  0  0
    2.5507   -2.9191    0.0000 C   0  0  0  0  0  0  0  0  0  0  0  0
    3.1028   -3.5322    0.0000 C   0  0  0  0  0  0  0  0  0  0  0  0
    3.7702   -4.0172    0.0000 N   0  0  0  0  0  0  0  0  0  0  0  0
    3.5153   -4.8018    0.0000 C   0  0  0  0  0  0  0  0  0  0  0  0
    4.0002   -5.4692    0.0000 N   0  0  0  0  0  0  0  0  0  0  0  0
    2.6903   -4.8018    0.0000 N   0  0  0  0  0  0  0  0  0  0  0  0
    2.4353   -4.0172    0.0000 C   0  0  0  0  0  0  0  0  0  0  0  0
    1.6507   -4.2721    0.0000 O   0  0  0  0  0  0  0  0  0  0  0  0
    3.6548   -2.9191    0.0000 C   0  0  0  0  0  0  0  0  0  0  0  0
    3.3999   -2.1345    0.0000 C   0  0  0  0  0  0  0  0  0  0  0  0
    3.9519   -1.5214    0.0000 C   0  0  0  0  0  0  0  0  0  0  0  0
    4.7589   -1.6930    0.0000 C   0  0  0  0  0  0  0  0  0  0  0  0
    5.0138   -2.4776    0.0000 C   0  0  0  0  0  0  0  0  0  0  0  0
    4.4618   -3.0907    0.0000 C   0  0  0  0  0  0  0  0  0  0  0  0
    1.4888   -3.8753    0.0000 C   0  0  0  0  0  0  0  0  0  0  0  0
    0.6819   -4.0468    0.0000 C   0  0  0  0  0  0  0  0  0  0  0  0
   -1.2292   -2.9922    0.0000 C   0  0  0  0  0  0  0  0  0  0  0  0
   -2.0362   -3.1637    0.0000 C   0  0  0  0  0  0  0  0  0  0  0  0
   -2.2911   -3.9483    0.0000 C   0  0  0  0  0  0  0  0  0  0  0  0
   -2.5460   -4.7329    0.0000 N   0  0  0  0  0  0  0  0  0  0  0  0
   -2.5882   -2.5506    0.0000 C   0  0  0  0  0  0  0  0  0  0  0  0
   -3.3952   -2.7221    0.0000 Br  0  0  0  0  0  0  0  0  0  0  0  0
   -2.3333   -1.7660    0.0000 C   0  0  0  0  0  0  0  0  0  0  0  0
   -1.5263   -1.5944    0.0000 C   0  0  0  0  0  0  0  0  0  0  0  0
   -0.9742   -2.2075    0.0000 C   0  0  0  0  0  0  0  0  0  0  0  0
  1  2  1  0  0  0  0
  2  3  1  0  0  0  0
  2  4  1  0  0  0  0
  4  5  1  0  0  0  0
  5  6  2  0  0  0  0
  6  7  1  0  0  0  0
  7  8  2  0  0  0  0
  8  9  1  0  0  0  0
  9 10  1  0  0  0  0
 10 11  1  0  0  0  0
 11 12  1  0  0  0  0
 12 13  1  0  0  0  0
 12 14  2  0  0  0  0
 14 15  1  0  0  0  0
 10 15  1  0  0  0  0
 15 16  2  0  0  0  0
 10 17  1  0  0  0  0
 17 18  2  0  0  0  0
 18 19  1  0  0  0  0
 19 20  2  0  0  0  0
 20 21  1  0  0  0  0
 21 22  2  0  0  0  0
 17 22  1  0  0  0  0
  8 23  1  0  0  0  0
 23 24  2  0  0  0  0
  5 24  1  0  0  0  0
  4 25  1  0  0  0  0
 25 26  2  0  0  0  0
 26 27  1  0  0  0  0
 27 28  3  0  0  0  0
 26 29  1  0  0  0  0
 29 30  1  0  0  0  0
 29 31  2  0  0  0  0
 31 32  1  0  0  0  0
 32 33  2  0  0  0  0
 25 33  1  0  0  0  0
M  END
> <ID>
CPD_2787

$$$$
CPD_2792
  Mrv1822 09091914012D          

 35 37  0  0  0  0            999 V2000
    4.2868   -7.4250    0.0000 C   0  0  0  0  0  0  0  0  0  0  0  0
    3.5724   -7.8375    0.0000 C   0  0  0  0  0  0  0  0  0  0  0  0
    3.5724   -8.6625    0.0000 C   0  0  0  0  0  0  0  0  0  0  0  0
    4.2868   -9.0750    0.0000 N   0  0  0  0  0  0  0  0  0  0  0  0
    5.0013   -8.6625    0.0000 C   0  0  0  0  0  0  0  0  0  0  0  0
    5.7158   -9.0750    0.0000 C   0  0  0  0  0  0  0  0  0  0  0  0
    6.4302   -8.6625    0.0000 O   0  0  0  0  0  0  0  0  0  0  0  0
    7.1447   -9.0750    0.0000 C   0  0  0  0  0  0  0  0  0  0  0  0
    7.8592   -8.6625    0.0000 C   0  0  0  0  0  0  0  0  0  0  0  0
    8.5737   -9.0750    0.0000 O   0  0  0  0  0  0  0  0  0  0  0  0
    9.2881   -8.6625    0.0000 C   0  0  0  0  0  0  0  0  0  0  0  0
   10.0026   -9.0750    0.0000 C   0  0  0  0  0  0  0  0  0  0  0  0
   10.7171   -8.6625    0.0000 O   0  0  0  0  0  0  0  0  0  0  0  0
   11.4315   -9.0750    0.0000 C   0  0  0  0  0  0  0  0  0  0  0  0
   12.1460   -8.6625    0.0000 C   0  0  0  0  0  0  0  0  0  0  0  0
   12.8605   -9.0750    0.0000 O   0  0  0  0  0  0  0  0  0  0  0  0
   13.5749   -8.6625    0.0000 C   0  0  0  0  0  0  0  0  0  0  0  0
   14.2894   -9.0750    0.0000 C   0  0  0  0  0  0  0  0  0  0  0  0
   15.0039   -8.6625    0.0000 C   0  0  0  0  0  0  0  0  0  0  0  0
   15.7184   -9.0750    0.0000 C   0  0  0  0  0  0  0  0  0  0  0  0
   15.7184   -9.9000    0.0000 C   0  0  0  0  0  0  0  0  0  0  0  0
   15.0039  -10.3125    0.0000 C   0  0  0  0  0  0  0  0  0  0  0  0
   14.2894   -9.9000    0.0000 C   0  0  0  0  0  0  0  0  0  0  0  0
    2.8579   -9.0750    0.0000 C   0  0  0  0  0  0  0  0  0  0  0  0
    2.1434   -8.6625    0.0000 C   0  0  0  0  0  0  0  0  0  0  0  0
    1.4289   -9.0750    0.0000 N   0  0  0  0  0  0  0  0  0  0  0  0
    1.4289   -9.9000    0.0000 C   0  0  0  0  0  0  0  0  0  0  0  0
    2.1434  -10.3125    0.0000 O   0  0  0  0  0  0  0  0  0  0  0  0
    0.7145  -10.3125    0.0000 C   0  0  0  0  0  0  0  0  0  0  0  0
    0.6282  -11.1330    0.0000 C   0  0  0  0  0  0  0  0  0  0  0  0
   -0.1787  -11.3045    0.0000 C   0  0  0  0  0  0  0  0  0  0  0  0
   -0.5912  -10.5900    0.0000 C   0  0  0  0  0  0  0  0  0  0  0  0
   -0.0392   -9.9769    0.0000 N   0  0  0  0  0  0  0  0  0  0  0  0
    2.1434   -7.8375    0.0000 C   0  0  0  0  0  0  0  0  0  0  0  0
    2.8579   -7.4250    0.0000 C   0  0  0  0  0  0  0  0  0  0  0  0
  1  2  1  0  0  0  0
  2  3  2  0  0  0  0
  3  4  1  0  0  0  0
  4  5  1  0  0  0  0
  5  6  1  0  0  0  0
  6  7  1  0  0  0  0
  7  8  1  0  0  0  0
  8  9  1  0  0  0  0
  9 10  1  0  0  0  0
 10 11  1  0  0  0  0
 11 12  1  0  0  0  0
 12 13  1  0  0  0  0
 13 14  1  0  0  0  0
 14 15  1  0  0  0  0
 15 16  1  0  0  0  0
 16 17  1  0  0  0  0
 17 18  1  0  0  0  0
 18 19  2  0  0  0  0
 19 20  1  0  0  0  0
 20 21  2  0  0  0  0
 21 22  1  0  0  0  0
 22 23  2  0  0  0  0
 18 23  1  0  0  0  0
  3 24  1  0  0  0  0
 24 25  2  0  0  0  0
 25 26  1  0  0  0  0
 26 27  1  0  0  0  0
 27 28  2  0  0  0  0
 27 29  1  0  0  0  0
 29 30  1  0  0  0  0
 30 31  1  0  0  0  0
 31 32  1  0  0  0  0
 32 33  1  0  0  0  0
 29 33  1  0  0  0  0
 25 34  1  0  0  0  0
 34 35  2  0  0  0  0
  2 35  1  0  0  0  0
M  END
> <ID>
CPD_2792

$$$$
CPD_2797
  Mrv1822 09091914012D          

 33 35  0  0  0  0            999 V2000
    2.2960   -3.9093    0.0000 C   0  0  0  0  0  0  0  0  0  0  0  0
    1.9605   -4.6630    0.0000 C   0  0  0  0  0  0  0  0  0  0  0  0
    2.4454   -5.3305    0.0000 C   0  0  0  0  0  0  0  0  0  0  0  0
    3.2704   -5.3305    0.0000 N   0  0  0  0  0  0  0  0  0  0  0  0
    3.5253   -6.1151    0.0000 N   0  0  0  0  0  0  0  0  0  0  0  0
    2.8579   -6.6000    0.0000 C   0  0  0  0  0  0  0  0  0  0  0  0
    2.1904   -6.1151    0.0000 O   0  0  0  0  0  0  0  0  0  0  0  0
    2.8579   -7.4250    0.0000 C   0  0  0  0  0  0  0  0  0  0  0  0
    3.5724   -7.8375    0.0000 C   0  0  0  0  0  0  0  0  0  0  0  0
    3.5724   -8.6625    0.0000 C   0  0  0  0  0  0  0  0  0  0  0  0
    4.2868   -9.0750    0.0000 N   0  0  0  0  0  0  0  0  0  0  0  0
    5.0013   -8.6625    0.0000 C   0  0  0  0  0  0  0  0  0  0  0  0
    5.7158   -9.0750    0.0000 C   0  0  0  0  0  0  0  0  0  0  0  0
    6.4302   -8.6625    0.0000 O   0  0  0  0  0  0  0  0  0  0  0  0
    7.1447   -9.0750    0.0000 C   0  0  0  0  0  0  0  0  0  0  0  0
    7.8592   -8.6625    0.0000 C   0  0  0  0  0  0  0  0  0  0  0  0
    8.5737   -9.0750    0.0000 O   0  0  0  0  0  0  0  0  0  0  0  0
    9.2881   -8.6625    0.0000 C   0  0  0  0  0  0  0  0  0  0  0  0
   10.0026   -9.0750    0.0000 C   0  0  0  0  0  0  0  0  0  0  0  0
   10.7171   -8.6625    0.0000 O   0  0  0  0  0  0  0  0  0  0  0  0
   11.4315   -9.0750    0.0000 C   0  0  0  0  0  0  0  0  0  0  0  0
   12.1460   -8.6625    0.0000 C   0  0  0  0  0  0  0  0  0  0  0  0
   12.8605   -9.0750    0.0000 O   0  0  0  0  0  0  0  0  0  0  0  0
   13.5749   -8.6625    0.0000 C   0  0  0  0  0  0  0  0  0  0  0  0
   14.2894   -9.0750    0.0000 C   0  0  0  0  0  0  0  0  0  0  0  0
   15.0039   -8.6625    0.0000 C   0  0  0  0  0  0  0  0  0  0  0  0
   15.7184   -9.0750    0.0000 C   0  0  0  0  0  0  0  0  0  0  0  0
   15.7184   -9.9000    0.0000 C   0  0  0  0  0  0  0  0  0  0  0  0
   15.0039  -10.3125    0.0000 C   0  0  0  0  0  0  0  0  0  0  0  0
   14.2894   -9.9000    0.0000 C   0  0  0  0  0  0  0  0  0  0  0  0
    2.8579   -9.0750    0.0000 C   0  0  0  0  0  0  0  0  0  0  0  0
    2.1434   -8.6625    0.0000 C   0  0  0  0  0  0  0  0  0  0  0  0
    2.1434   -7.8375    0.0000 C   0  0  0  0  0  0  0  0  0  0  0  0
  1  2  1  0  0  0  0
  2  3  1  0  0  0  0
  3  4  2  0  0  0  0
  4  5  1  0  0  0  0
  5  6  2  0  0  0  0
  6  7  1  0  0  0  0
  3  7  1  0  0  0  0
  6  8  1  0  0  0  0
  8  9  2  0  0  0  0
  9 10  1  0  0  0  0
 10 11  1  0  0  0  0
 11 12  1  0  0  0  0
 12 13  1  0  0  0  0
 13 14  1  0  0  0  0
 14 15  1  0  0  0  0
 15 16  1  0  0  0  0
 16 17  1  0  0  0  0
 17 18  1  0  0  0  0
 18 19  1  0  0  0  0
 19 20  1  0  0  0  0
 20 21  1  0  0  0  0
 21 22  1  0  0  0  0
 22 23  1  0  0  0  0
 23 24  1  0  0  0  0
 24 25  1  0  0  0  0
 25 26  2  0  0  0  0
 26 27  1  0  0  0  0
 27 28  2  0  0  0  0
 28 29  1  0  0  0  0
 29 30  2  0  0  0  0
 25 30  1  0  0  0  0
 10 31  2  0  0  0  0
 31 32  1  0  0  0  0
 32 33  2  0  0  0  0
  8 33  1  0  0  0  0
M  END
> <ID>
CPD_2797

$$$$
CPD_2802
  Mrv1822 09091914012D          

 26 28  0  0  0  0            999 V2000
    2.8579    2.4750    0.0000 C   0  0  0  0  0  0  0  0  0  0  0  0
    2.1434    2.0625    0.0000 N   0  0  0  0  0  0  0  0  0  0  0  0
    2.1434    1.2375    0.0000 C   0  0  0  0  0  0  0  0  0  0  0  0
    2.8579    0.8250    0.0000 C   0  0  0  0  0  0  0  0  0  0  0  0
    2.8579   -0.0000    0.0000 C   0  0  0  0  0  0  0  0  0  0  0  0
    2.1434   -0.4125    0.0000 C   0  0  0  0  0  0  0  0  0  0  0  0
    1.4289   -0.0000    0.0000 C   0  0  0  0  0  0  0  0  0  0  0  0
    0.7145   -0.4125    0.0000 N   0  0  0  0  0  0  0  0  0  0  0  0
    0.7145   -1.2375    0.0000 C   0  0  0  0  0  0  0  0  0  0  0  0
    1.3819   -1.7224    0.0000 C   0  0  0  0  0  0  0  0  0  0  0  0
    1.1270   -2.5070    0.0000 S   0  0  0  0  0  0  0  0  0  0  0  0
    0.3020   -2.5070    0.0000 N   0  0  0  0  0  0  0  0  0  0  0  0
    0.0470   -1.7224    0.0000 C   0  0  0  0  0  0  0  0  0  0  0  0
   -0.7376   -1.4675    0.0000 C   0  0  0  0  0  0  0  0  0  0  0  0
   -1.3507   -2.0195    0.0000 C   0  0  0  0  0  0  0  0  0  0  0  0
   -2.1353   -1.7646    0.0000 C   0  0  0  0  0  0  0  0  0  0  0  0
   -2.7484   -2.3166    0.0000 O   0  0  0  0  0  0  0  0  0  0  0  0
   -3.5330   -2.0617    0.0000 C   0  0  0  0  0  0  0  0  0  0  0  0
   -2.3068   -0.9576    0.0000 C   0  0  0  0  0  0  0  0  0  0  0  0
   -1.6937   -0.4056    0.0000 C   0  0  0  0  0  0  0  0  0  0  0  0
   -0.9091   -0.6605    0.0000 C   0  0  0  0  0  0  0  0  0  0  0  0
    2.1665   -1.4675    0.0000 C   0  0  0  0  0  0  0  0  0  0  0  0
    2.3381   -0.6605    0.0000 O   0  0  0  0  0  0  0  0  0  0  0  0
    2.7796   -2.0195    0.0000 O   0  0  0  0  0  0  0  0  0  0  0  0
    3.5642   -1.7646    0.0000 C   0  0  0  0  0  0  0  0  0  0  0  0
    1.4289    0.8250    0.0000 N   0  0  0  0  0  0  0  0  0  0  0  0
  1  2  1  0  0  0  0
  2  3  1  0  0  0  0
  3  4  2  0  0  0  0
  4  5  1  0  0  0  0
  5  6  2  0  0  0  0
  6  7  1  0  0  0  0
  7  8  1  0  0  0  0
  8  9  1  0  0  0  0
  9 10  2  0  0  0  0
 10 11  1  0  0  0  0
 11 12  1  0  0  0  0
 12 13  2  0  0  0  0
  9 13  1  0  0  0  0
 13 14  1  0  0  0  0
 14 15  2  0  0  0  0
 15 16  1  0  0  0  0
 16 17  1  0  0  0  0
 17 18  1  0  0  0  0
 16 19  2  0  0  0  0
 19 20  1  0  0  0  0
 20 21  2  0  0  0  0
 14 21  1  0  0  0  0
 10 22  1  0  0  0  0
 22 23  2  0  0  0  0
 22 24  1  0  0  0  0
 24 25  1  0  0  0  0
  7 26  2  0  0  0  0
  3 26  1  0  0  0  0
M  END
> <ID>
CPD_2802

$$$$
CPD_2807
  Mrv1822 09091914012D          

 25 27  0  0  0  0            999 V2000
    1.4289    0.8250    0.0000 C   0  0  0  0  0  0  0  0  0  0  0  0
    1.4289   -0.0000    0.0000 O   0  0  0  0  0  0  0  0  0  0  0  0
    0.7145   -0.4125    0.0000 C   0  0  0  0  0  0  0  0  0  0  0  0
    0.0000    0.0000    0.0000 O   0  0  0  0  0  0  0  0  0  0  0  0
    0.7145   -1.2375    0.0000 C   0  0  0  0  0  0  0  0  0  0  0  0
    0.0470   -1.7224    0.0000 C   0  0  0  0  0  0  0  0  0  0  0  0
   -0.7376   -1.4675    0.0000 N   0  0  0  0  0  0  0  0  0  0  0  0
   -0.9091   -0.6605    0.0000 C   0  0  0  0  0  0  0  0  0  0  0  0
   -1.6628   -0.3250    0.0000 C   0  0  0  0  0  0  0  0  0  0  0  0
   -1.5766    0.4955    0.0000 N   0  0  0  0  0  0  0  0  0  0  0  0
   -0.7696    0.6671    0.0000 C   0  0  0  0  0  0  0  0  0  0  0  0
   -0.4340    1.4207    0.0000 C   0  0  0  0  0  0  0  0  0  0  0  0
   -0.9189    2.0882    0.0000 O   0  0  0  0  0  0  0  0  0  0  0  0
   -0.3571   -0.0474    0.0000 S   0  0  0  0  0  0  0  0  0  0  0  0
    0.3020   -2.5070    0.0000 C   0  0  0  0  0  0  0  0  0  0  0  0
    1.1270   -2.5070    0.0000 N   0  0  0  0  0  0  0  0  0  0  0  0
    1.3819   -1.7224    0.0000 S   0  0  0  0  0  0  0  0  0  0  0  0
   -0.1830   -3.1745    0.0000 C   0  0  0  0  0  0  0  0  0  0  0  0
    0.1526   -3.9282    0.0000 C   0  0  0  0  0  0  0  0  0  0  0  0
   -0.3323   -4.5956    0.0000 C   0  0  0  0  0  0  0  0  0  0  0  0
    0.0032   -5.3493    0.0000 O   0  0  0  0  0  0  0  0  0  0  0  0
   -0.4817   -6.0167    0.0000 C   0  0  0  0  0  0  0  0  0  0  0  0
   -1.1528   -4.5094    0.0000 C   0  0  0  0  0  0  0  0  0  0  0  0
   -1.4884   -3.7557    0.0000 C   0  0  0  0  0  0  0  0  0  0  0  0
   -1.0034   -3.0882    0.0000 C   0  0  0  0  0  0  0  0  0  0  0  0
  1  2  1  0  0  0  0
  2  3  1  0  0  0  0
  3  4  2  0  0  0  0
  3  5  1  0  0  0  0
  5  6  2  0  0  0  0
  6  7  1  0  0  0  0
  7  8  1  0  0  0  0
  8  9  2  0  0  0  0
  9 10  1  0  0  0  0
 10 11  2  0  0  0  0
 11 12  1  0  0  0  0
 12 13  1  0  0  0  0
 11 14  1  0  0  0  0
  8 14  1  0  0  0  0
  6 15  1  0  0  0  0
 15 16  2  0  0  0  0
 16 17  1  0  0  0  0
  5 17  1  0  0  0  0
 15 18  1  0  0  0  0
 18 19  2  0  0  0  0
 19 20  1  0  0  0  0
 20 21  1  0  0  0  0
 21 22  1  0  0  0  0
 20 23  2  0  0  0  0
 23 24  1  0  0  0  0
 24 25  2  0  0  0  0
 18 25  1  0  0  0  0
M  END
> <ID>
CPD_2807

$$$$
CPD_2812
  Mrv1822 09091914012D          

 35 39  0  0  0  0            999 V2000
   -1.0328    1.9126    0.0000 O   0  0  0  0  0  0  0  0  0  0  0  0
   -0.6670    2.5536    0.0000 C   0  0  0  0  0  0  0  0  0  0  0  0
   -1.1822    3.3337    0.0000 O   0  0  0  0  0  0  0  0  0  0  0  0
    0.1232    2.7525    0.0000 C   0  0  0  0  0  0  0  0  0  0  0  0
    0.6753    2.1394    0.0000 N   0  0  0  0  0  0  0  0  0  0  0  0
    1.4289    2.4750    0.0000 N   0  0  0  0  0  0  0  0  0  0  0  0
    1.3427    3.2955    0.0000 N   0  0  0  0  0  0  0  0  0  0  0  0
    0.5357    3.4670    0.0000 N   0  0  0  0  0  0  0  0  0  0  0  0
    2.1434    2.0625    0.0000 C   0  0  0  0  0  0  0  0  0  0  0  0
    2.8579    2.4750    0.0000 C   0  0  0  0  0  0  0  0  0  0  0  0
    3.5724    2.0625    0.0000 C   0  0  0  0  0  0  0  0  0  0  0  0
    3.5724    1.2375    0.0000 C   0  0  0  0  0  0  0  0  0  0  0  0
    2.8579    0.8250    0.0000 C   0  0  0  0  0  0  0  0  0  0  0  0
    2.1434    1.2375    0.0000 C   0  0  0  0  0  0  0  0  0  0  0  0
    1.4289    0.8250    0.0000 N   0  0  0  0  0  0  0  0  0  0  0  0
    1.4289    0.0000    0.0000 C   0  0  0  0  0  0  0  0  0  0  0  0
    2.1434   -0.4125    0.0000 C   0  0  0  0  0  0  0  0  0  0  0  0
    2.8579    0.0000    0.0000 N   0  0  0  0  0  0  0  0  0  0  0  0
    3.5724   -0.4125    0.0000 C   0  0  0  0  0  0  0  0  0  0  0  0
    3.5724   -1.2375    0.0000 C   0  0  0  0  0  0  0  0  0  0  0  0
    2.8579   -1.6500    0.0000 C   0  0  0  0  0  0  0  0  0  0  0  0
    2.1434   -1.2375    0.0000 C   0  0  0  0  0  0  0  0  0  0  0  0
    1.4289   -1.6500    0.0000 C   0  0  0  0  0  0  0  0  0  0  0  0
    0.7145   -1.2375    0.0000 C   0  0  0  0  0  0  0  0  0  0  0  0
    0.7145   -0.4125    0.0000 C   0  0  0  0  0  0  0  0  0  0  0  0
    0.7145    1.2375    0.0000 S   0  0  0  0  0  0  0  0  0  0  0  0
    1.1270    1.9520    0.0000 O   0  0  0  0  0  0  0  0  0  0  0  0
    0.3020    0.5230    0.0000 O   0  0  0  0  0  0  0  0  0  0  0  0
    0.0000    1.6500    0.0000 C   0  0  0  0  0  0  0  0  0  0  0  0
   -0.7145    1.2375    0.0000 C   0  0  0  0  0  0  0  0  0  0  0  0
   -1.4289    1.6500    0.0000 C   0  0  0  0  0  0  0  0  0  0  0  0
   -1.4289    2.4750    0.0000 C   0  0  0  0  0  0  0  0  0  0  0  0
   -0.7145    2.8875    0.0000 C   0  0  0  0  0  0  0  0  0  0  0  0
    0.0000    2.4750    0.0000 C   0  0  0  0  0  0  0  0  0  0  0  0
   -0.1715    3.2820    0.0000 O   0  0  0  0  0  0  0  0  0  0  0  0
  1  2  1  0  0  0  0
  2  3  2  0  0  0  0
  2  4  1  0  0  0  0
  4  5  2  0  0  0  0
  5  6  1  0  0  0  0
  6  7  1  0  0  0  0
  7  8  2  0  0  0  0
  4  8  1  0  0  0  0
  6  9  1  0  0  0  0
  9 10  2  0  0  0  0
 10 11  1  0  0  0  0
 11 12  2  0  0  0  0
 12 13  1  0  0  0  0
 13 14  2  0  0  0  0
  9 14  1  0  0  0  0
 14 15  1  0  0  0  0
 15 16  1  0  0  0  0
 16 17  2  0  0  0  0
 17 18  1  0  0  0  0
 18 19  2  0  0  0  0
 19 20  1  0  0  0  0
 20 21  2  0  0  0  0
 21 22  1  0  0  0  0
 17 22  1  0  0  0  0
 22 23  2  0  0  0  0
 23 24  1  0  0  0  0
 24 25  2  0  0  0  0
 16 25  1  0  0  0  0
 15 26  1  0  0  0  0
 26 27  2  0  0  0  0
 26 28  2  0  0  0  0
 26 29  1  0  0  0  0
 29 30  2  0  0  0  0
 30 31  1  0  0  0  0
 31 32  2  0  0  0  0
 32 33  1  0  0  0  0
 33 34  2  0  0  0  0
 29 34  1  0  0  0  0
 34 35  1  0  0  0  0
M  END
> <ID>
CPD_2812

$$$$
CPD_2817
  Mrv1822 09091914012D          

 32 34  0  0  0  0            999 V2000
   -1.8414   -1.7605    0.0000 C   0  0  0  0  0  0  0  0  0  0  0  0
   -1.4289   -2.4750    0.0000 O   0  0  0  0  0  0  0  0  0  0  0  0
   -0.6039   -2.4750    0.0000 C   0  0  0  0  0  0  0  0  0  0  0  0
   -0.1914   -1.7605    0.0000 O   0  0  0  0  0  0  0  0  0  0  0  0
   -0.1914   -3.1895    0.0000 C   0  0  0  0  0  0  0  0  0  0  0  0
    0.6336   -3.1895    0.0000 N   0  0  0  0  0  0  0  0  0  0  0  0
    1.0461   -3.9039    0.0000 C   0  0  0  0  0  0  0  0  0  0  0  0
    0.6336   -4.6184    0.0000 C   0  0  0  0  0  0  0  0  0  0  0  0
   -0.1914   -4.6184    0.0000 N   0  0  0  0  0  0  0  0  0  0  0  0
   -0.6039   -5.3329    0.0000 C   0  0  0  0  0  0  0  0  0  0  0  0
   -1.4289   -5.3329    0.0000 C   0  0  0  0  0  0  0  0  0  0  0  0
   -1.8414   -4.6184    0.0000 C   0  0  0  0  0  0  0  0  0  0  0  0
   -2.4734   -5.1487    0.0000 F   0  0  0  0  0  0  0  0  0  0  0  0
   -2.4734   -4.0881    0.0000 F   0  0  0  0  0  0  0  0  0  0  0  0
   -1.4289   -3.9039    0.0000 C   0  0  0  0  0  0  0  0  0  0  0  0
   -1.8414   -3.1895    0.0000 C   0  0  0  0  0  0  0  0  0  0  0  0
   -2.6664   -3.1895    0.0000 O   0  0  0  0  0  0  0  0  0  0  0  0
   -0.6039   -3.9039    0.0000 C   0  0  0  0  0  0  0  0  0  0  0  0
    1.0461   -5.3329    0.0000 C   0  0  0  0  0  0  0  0  0  0  0  0
    0.6336   -6.0474    0.0000 Cl  0  0  0  0  0  0  0  0  0  0  0  0
    1.8711   -5.3329    0.0000 C   0  0  0  0  0  0  0  0  0  0  0  0
    2.2836   -4.6184    0.0000 C   0  0  0  0  0  0  0  0  0  0  0  0
    1.8711   -3.9039    0.0000 C   0  0  0  0  0  0  0  0  0  0  0  0
    1.0461   -2.4750    0.0000 S   0  0  0  0  0  0  0  0  0  0  0  0
    1.7605   -2.8875    0.0000 O   0  0  0  0  0  0  0  0  0  0  0  0
    0.3316   -2.0625    0.0000 O   0  0  0  0  0  0  0  0  0  0  0  0
    1.4586   -1.7605    0.0000 C   0  0  0  0  0  0  0  0  0  0  0  0
    1.0461   -1.0461    0.0000 C   0  0  0  0  0  0  0  0  0  0  0  0
    1.4586   -0.3316    0.0000 C   0  0  0  0  0  0  0  0  0  0  0  0
    2.2836   -0.3316    0.0000 C   0  0  0  0  0  0  0  0  0  0  0  0
    2.6961   -1.0461    0.0000 C   0  0  0  0  0  0  0  0  0  0  0  0
    2.2836   -1.7605    0.0000 C   0  0  0  0  0  0  0  0  0  0  0  0
  1  2  1  0  0  0  0
  2  3  1  0  0  0  0
  3  4  2  0  0  0  0
  3  5  1  0  0  0  0
  5  6  1  0  0  0  0
  6  7  1  0  0  0  0
  7  8  2  0  0  0  0
  8  9  1  0  0  0  0
  9 10  1  0  0  0  0
 10 11  1  0  0  0  0
 11 12  1  0  0  0  0
 12 13  1  0  0  0  0
 12 14  1  0  0  0  0
 12 15  1  0  0  0  0
 15 16  1  0  0  0  0
 16 17  1  0  0  0  0
 15 18  1  0  0  0  0
  9 18  1  0  0  0  0
  8 19  1  0  0  0  0
 19 20  1  0  0  0  0
 19 21  2  0  0  0  0
 21 22  1  0  0  0  0
 22 23  2  0  0  0  0
  7 23  1  0  0  0  0
  6 24  1  0  0  0  0
 24 25  2  0  0  0  0
 24 26  2  0  0  0  0
 24 27  1  0  0  0  0
 27 28  2  0  0  0  0
 28 29  1  0  0  0  0
 29 30  2  0  0  0  0
 30 31  1  0  0  0  0
 31 32  2  0  0  0  0
 27 32  1  0  0  0  0
M  END
> <ID>
CPD_2817

$$$$
CPD_2822
  Mrv1822 09091914012D          

 18 19  0  0  0  0            999 V2000
    0.0000    0.8250    0.0000 C   0  0  0  0  0  0  0  0  0  0  0  0
    0.0000   -0.0000    0.0000 C   0  0  0  0  0  0  0  0  0  0  0  0
    0.7145   -0.4125    0.0000 C   0  0  0  0  0  0  0  0  0  0  0  0
    0.7145   -1.2375    0.0000 C   0  0  0  0  0  0  0  0  0  0  0  0
    1.3819   -1.7224    0.0000 N   0  0  0  0  0  0  0  0  0  0  0  0
    1.1270   -2.5070    0.0000 C   0  0  0  0  0  0  0  0  0  0  0  0
    0.3020   -2.5070    0.0000 C   0  0  0  0  0  0  0  0  0  0  0  0
    0.0470   -1.7224    0.0000 N   0  0  0  0  0  0  0  0  0  0  0  0
    1.6119   -3.1745    0.0000 N   0  0  0  0  0  0  0  0  0  0  0  0
    2.4324   -3.0882    0.0000 C   0  0  0  0  0  0  0  0  0  0  0  0
    2.9173   -3.7557    0.0000 C   0  0  0  0  0  0  0  0  0  0  0  0
    2.5817   -4.5094    0.0000 C   0  0  0  0  0  0  0  0  0  0  0  0
    3.3822   -4.7089    0.0000 F   0  0  0  0  0  0  0  0  0  0  0  0
    2.5242   -5.3324    0.0000 F   0  0  0  0  0  0  0  0  0  0  0  0
    1.7613   -4.5956    0.0000 C   0  0  0  0  0  0  0  0  0  0  0  0
    1.4257   -5.3493    0.0000 C   0  0  0  0  0  0  0  0  0  0  0  0
    0.6052   -5.4355    0.0000 O   0  0  0  0  0  0  0  0  0  0  0  0
    1.2763   -3.9282    0.0000 C   0  0  0  0  0  0  0  0  0  0  0  0
  1  2  1  0  0  0  0
  2  3  1  0  0  0  0
  3  4  1  0  0  0  0
  4  5  2  0  0  0  0
  5  6  1  0  0  0  0
  6  7  2  0  0  0  0
  7  8  1  0  0  0  0
  4  8  1  0  0  0  0
  6  9  1  0  0  0  0
  9 10  1  0  0  0  0
 10 11  1  0  0  0  0
 11 12  1  0  0  0  0
 12 13  1  0  0  0  0
 12 14  1  0  0  0  0
 12 15  1  0  0  0  0
 15 16  1  0  0  0  0
 16 17  1  0  0  0  0
 15 18  1  0  0  0  0
  9 18  1  0  0  0  0
M  END
> <ID>
CPD_2822

$$$$
CPD_2827
  Mrv1822 09091914012D          

 24 26  0  0  0  0            999 V2000
    0.7145    2.0625    0.0000 C   0  0  0  0  0  0  0  0  0  0  0  0
    0.7145    1.2375    0.0000 O   0  0  0  0  0  0  0  0  0  0  0  0
    1.4289    0.8250    0.0000 C   0  0  0  0  0  0  0  0  0  0  0  0
    2.1434    1.2375    0.0000 O   0  0  0  0  0  0  0  0  0  0  0  0
    1.4289    0.0000    0.0000 C   0  0  0  0  0  0  0  0  0  0  0  0
    2.1434   -0.4125    0.0000 C   0  0  0  0  0  0  0  0  0  0  0  0
    2.8579    0.0000    0.0000 O   0  0  0  0  0  0  0  0  0  0  0  0
    3.5724   -0.4125    0.0000 C   0  0  0  0  0  0  0  0  0  0  0  0
    3.5724   -1.2375    0.0000 C   0  0  0  0  0  0  0  0  0  0  0  0
    2.8579   -1.6500    0.0000 O   0  0  0  0  0  0  0  0  0  0  0  0
    2.1434   -1.2375    0.0000 C   0  0  0  0  0  0  0  0  0  0  0  0
    1.4289   -1.6500    0.0000 N   0  0  0  0  0  0  0  0  0  0  0  0
    0.7145   -1.2375    0.0000 C   0  0  0  0  0  0  0  0  0  0  0  0
    0.7145   -0.4125    0.0000 C   0  0  0  0  0  0  0  0  0  0  0  0
    0.0000   -0.0000    0.0000 N   0  0  0  0  0  0  0  0  0  0  0  0
   -0.7145   -0.4125    0.0000 C   0  0  0  0  0  0  0  0  0  0  0  0
   -1.4289   -0.0000    0.0000 C   0  0  0  0  0  0  0  0  0  0  0  0
   -1.4289    0.8250    0.0000 C   0  0  0  0  0  0  0  0  0  0  0  0
   -2.2414    0.6817    0.0000 F   0  0  0  0  0  0  0  0  0  0  0  0
   -1.7111    1.6002    0.0000 F   0  0  0  0  0  0  0  0  0  0  0  0
   -0.7145    1.2375    0.0000 C   0  0  0  0  0  0  0  0  0  0  0  0
   -0.7145    2.0625    0.0000 C   0  0  0  0  0  0  0  0  0  0  0  0
   -0.0000    2.4750    0.0000 O   0  0  0  0  0  0  0  0  0  0  0  0
    0.0000    0.8250    0.0000 C   0  0  0  0  0  0  0  0  0  0  0  0
  1  2  1  0  0  0  0
  2  3  1  0  0  0  0
  3  4  2  0  0  0  0
  3  5  1  0  0  0  0
  5  6  2  0  0  0  0
  6  7  1  0  0  0  0
  7  8  1  0  0  0  0
  8  9  1  0  0  0  0
  9 10  1  0  0  0  0
 10 11  1  0  0  0  0
  6 11  1  0  0  0  0
 11 12  2  0  0  0  0
 12 13  1  0  0  0  0
 13 14  2  0  0  0  0
  5 14  1  0  0  0  0
 14 15  1  0  0  0  0
 15 16  1  0  0  0  0
 16 17  1  0  0  0  0
 17 18  1  0  0  0  0
 18 19  1  0  0  0  0
 18 20  1  0  0  0  0
 18 21  1  0  0  0  0
 21 22  1  0  0  0  0
 22 23  1  0  0  0  0
 21 24  1  0  0  0  0
 15 24  1  0  0  0  0
M  END
> <ID>
CPD_2827

$$$$
CPD_2832
  Mrv1822 09091914012D          

 36 38  0  0  0  0            999 V2000
   -1.2375   -6.7105    0.0000 C   0  0  0  0  0  0  0  0  0  0  0  0
   -0.4125   -6.7105    0.0000 C   0  0  0  0  0  0  0  0  0  0  0  0
    0.0000   -7.4250    0.0000 O   0  0  0  0  0  0  0  0  0  0  0  0
    0.8250   -7.4250    0.0000 C   0  0  0  0  0  0  0  0  0  0  0  0
    1.2375   -6.7105    0.0000 O   0  0  0  0  0  0  0  0  0  0  0  0
    1.2375   -8.1395    0.0000 C   0  0  0  0  0  0  0  0  0  0  0  0
    0.8250   -8.8539    0.0000 C   0  0  0  0  0  0  0  0  0  0  0  0
    0.0000   -8.8539    0.0000 C   0  0  0  0  0  0  0  0  0  0  0  0
    2.0625   -8.1395    0.0000 N   0  0  0  0  0  0  0  0  0  0  0  0
    2.4750   -8.8539    0.0000 C   0  0  0  0  0  0  0  0  0  0  0  0
    3.3000   -8.8539    0.0000 C   0  0  0  0  0  0  0  0  0  0  0  0
    3.7125   -9.5684    0.0000 C   0  0  0  0  0  0  0  0  0  0  0  0
    3.3000  -10.2829    0.0000 C   0  0  0  0  0  0  0  0  0  0  0  0
    2.4750  -10.2829    0.0000 C   0  0  0  0  0  0  0  0  0  0  0  0
    2.0625   -9.5684    0.0000 C   0  0  0  0  0  0  0  0  0  0  0  0
    1.2375   -9.5684    0.0000 C   0  0  0  0  0  0  0  0  0  0  0  0
    4.5375   -9.5684    0.0000 N   0  0  0  0  0  0  0  0  0  0  0  0
    4.9500  -10.2829    0.0000 C   0  0  0  0  0  0  0  0  0  0  0  0
    5.7750  -10.2829    0.0000 C   0  0  0  0  0  0  0  0  0  0  0  0
    6.1875   -9.5684    0.0000 C   0  0  0  0  0  0  0  0  0  0  0  0
    5.7750   -8.8539    0.0000 C   0  0  0  0  0  0  0  0  0  0  0  0
    4.9500   -8.8539    0.0000 C   0  0  0  0  0  0  0  0  0  0  0  0
    6.1875   -8.1395    0.0000 O   0  0  0  0  0  0  0  0  0  0  0  0
    7.0125   -8.1395    0.0000 C   0  0  0  0  0  0  0  0  0  0  0  0
    7.4250   -7.4250    0.0000 C   0  0  0  0  0  0  0  0  0  0  0  0
    8.2500   -7.4250    0.0000 C   0  0  0  0  0  0  0  0  0  0  0  0
    8.6625   -8.1395    0.0000 C   0  0  0  0  0  0  0  0  0  0  0  0
    8.2500   -8.8539    0.0000 C   0  0  0  0  0  0  0  0  0  0  0  0
    7.4250   -8.8539    0.0000 C   0  0  0  0  0  0  0  0  0  0  0  0
    7.0125   -6.7105    0.0000 C   0  0  0  0  0  0  0  0  0  0  0  0
    7.4250   -5.9961    0.0000 C   0  0  0  0  0  0  0  0  0  0  0  0
    6.1875   -6.7105    0.0000 C   0  0  0  0  0  0  0  0  0  0  0  0
    2.4750   -7.4250    0.0000 S   0  0  0  0  0  0  0  0  0  0  0  0
    3.1895   -7.8375    0.0000 C   0  0  0  0  0  0  0  0  0  0  0  0
    1.7605   -7.0125    0.0000 O   0  0  0  0  0  0  0  0  0  0  0  0
    2.8875   -6.7105    0.0000 O   0  0  0  0  0  0  0  0  0  0  0  0
  1  2  1  0  0  0  0
  2  3  1  0  0  0  0
  3  4  1  0  0  0  0
  4  5  2  0  0  0  0
  4  6  1  0  0  0  0
  6  7  1  0  0  0  0
  7  8  1  0  0  0  0
  6  9  1  0  0  0  0
  9 10  1  0  0  0  0
 10 11  2  0  0  0  0
 11 12  1  0  0  0  0
 12 13  2  0  0  0  0
 13 14  1  0  0  0  0
 14 15  2  0  0  0  0
 10 15  1  0  0  0  0
 15 16  1  0  0  0  0
 12 17  1  0  0  0  0
 17 18  1  0  0  0  0
 18 19  1  0  0  0  0
 19 20  1  0  0  0  0
 20 21  1  0  0  0  0
 21 22  1  0  0  0  0
 17 22  1  0  0  0  0
 21 23  1  0  0  0  0
 23 24  1  0  0  0  0
 24 25  2  0  0  0  0
 25 26  1  0  0  0  0
 26 27  2  0  0  0  0
 27 28  1  0  0  0  0
 28 29  2  0  0  0  0
 24 29  1  0  0  0  0
 25 30  1  0  0  0  0
 30 31  1  0  0  0  0
 30 32  1  0  0  0  0
  9 33  1  0  0  0  0
 33 34  1  0  0  0  0
 33 35  2  0  0  0  0
 33 36  2  0  0  0  0
M  END
> <ID>
CPD_2832

$$$$
CPD_2837
  Mrv1822 09091914012D          

 28 30  0  0  0  0            999 V2000
    0.4007    4.1439    0.0000 C   0  0  0  0  0  0  0  0  0  0  0  0
    0.2292    3.3369    0.0000 C   0  0  0  0  0  0  0  0  0  0  0  0
   -0.5554    3.0820    0.0000 C   0  0  0  0  0  0  0  0  0  0  0  0
   -0.7269    2.2750    0.0000 O   0  0  0  0  0  0  0  0  0  0  0  0
   -1.5116    2.0201    0.0000 C   0  0  0  0  0  0  0  0  0  0  0  0
   -1.6831    1.2131    0.0000 C   0  0  0  0  0  0  0  0  0  0  0  0
   -1.0700    0.6611    0.0000 N   0  0  0  0  0  0  0  0  0  0  0  0
   -1.2415   -0.1459    0.0000 C   0  0  0  0  0  0  0  0  0  0  0  0
   -0.6284   -0.6979    0.0000 C   0  0  0  0  0  0  0  0  0  0  0  0
   -0.1435   -1.3654    0.0000 C   0  0  0  0  0  0  0  0  0  0  0  0
    0.6411   -1.1104    0.0000 C   0  0  0  0  0  0  0  0  0  0  0  0
    0.6411   -0.2854    0.0000 C   0  0  0  0  0  0  0  0  0  0  0  0
   -0.1435   -0.0305    0.0000 C   0  0  0  0  0  0  0  0  0  0  0  0
    1.3556    0.1271    0.0000 C   0  0  0  0  0  0  0  0  0  0  0  0
    2.0701   -0.2854    0.0000 C   0  0  0  0  0  0  0  0  0  0  0  0
    2.0701   -1.1104    0.0000 C   0  0  0  0  0  0  0  0  0  0  0  0
    1.3556   -1.5229    0.0000 C   0  0  0  0  0  0  0  0  0  0  0  0
   -1.2415   -1.2500    0.0000 C   0  0  0  0  0  0  0  0  0  0  0  0
   -1.0700   -2.0569    0.0000 O   0  0  0  0  0  0  0  0  0  0  0  0
   -2.0261   -0.9950    0.0000 O   0  0  0  0  0  0  0  0  0  0  0  0
   -2.4677    0.9582    0.0000 C   0  0  0  0  0  0  0  0  0  0  0  0
   -3.0808    1.5102    0.0000 C   0  0  0  0  0  0  0  0  0  0  0  0
   -2.9093    2.3172    0.0000 C   0  0  0  0  0  0  0  0  0  0  0  0
   -2.1247    2.5721    0.0000 C   0  0  0  0  0  0  0  0  0  0  0  0
   -3.5224    2.8692    0.0000 C   0  0  0  0  0  0  0  0  0  0  0  0
   -4.3070    2.6143    0.0000 O   0  0  0  0  0  0  0  0  0  0  0  0
   -3.3508    3.6762    0.0000 O   0  0  0  0  0  0  0  0  0  0  0  0
   -3.9639    4.2282    0.0000 C   0  0  0  0  0  0  0  0  0  0  0  0
  1  2  1  0  0  0  0
  2  3  1  0  0  0  0
  3  4  1  0  0  0  0
  4  5  1  0  0  0  0
  5  6  2  0  0  0  0
  6  7  1  0  0  0  0
  7  8  1  0  0  0  0
  8  9  1  0  0  0  0
  9 10  1  0  0  0  0
 10 11  1  0  0  0  0
 11 12  2  0  0  0  0
 12 13  1  0  0  0  0
  9 13  1  0  0  0  0
 12 14  1  0  0  0  0
 14 15  2  0  0  0  0
 15 16  1  0  0  0  0
 16 17  2  0  0  0  0
 11 17  1  0  0  0  0
  9 18  1  0  0  0  0
 18 19  1  0  0  0  0
 18 20  2  0  0  0  0
  6 21  1  0  0  0  0
 21 22  2  0  0  0  0
 22 23  1  0  0  0  0
 23 24  2  0  0  0  0
  5 24  1  0  0  0  0
 23 25  1  0  0  0  0
 25 26  2  0  0  0  0
 25 27  1  0  0  0  0
 27 28  1  0  0  0  0
M  END
> <ID>
CPD_2837

$$$$
CPD_2842
  Mrv1822 09091914012D          

 22 23  0  0  0  0            999 V2000
    1.4289    0.0000    0.0000 C   0  0  0  0  0  0  0  0  0  0  0  0
    2.1434   -0.4125    0.0000 O   0  0  0  0  0  0  0  0  0  0  0  0
    2.1434   -1.2375    0.0000 C   0  0  0  0  0  0  0  0  0  0  0  0
    2.8579   -1.6500    0.0000 C   0  0  0  0  0  0  0  0  0  0  0  0
    3.5724   -1.2375    0.0000 N   0  0  0  0  0  0  0  0  0  0  0  0
    4.2868   -1.6500    0.0000 C   0  0  0  0  0  0  0  0  0  0  0  0
    5.0013   -1.2375    0.0000 C   0  0  0  0  0  0  0  0  0  0  0  0
    5.7158   -1.6500    0.0000 C   0  0  0  0  0  0  0  0  0  0  0  0
    6.4302   -1.2375    0.0000 F   0  0  0  0  0  0  0  0  0  0  0  0
    5.7158   -2.4750    0.0000 C   0  0  0  0  0  0  0  0  0  0  0  0
    6.4302   -2.8875    0.0000 C   0  0  0  0  0  0  0  0  0  0  0  0
    6.4302   -3.7125    0.0000 N   0  0  0  0  0  0  0  0  0  0  0  0
    7.1447   -4.1250    0.0000 C   0  0  0  0  0  0  0  0  0  0  0  0
    5.7158   -4.1250    0.0000 C   0  0  0  0  0  0  0  0  0  0  0  0
    5.0013   -2.8875    0.0000 C   0  0  0  0  0  0  0  0  0  0  0  0
    4.2868   -2.4750    0.0000 C   0  0  0  0  0  0  0  0  0  0  0  0
    2.8579   -2.4750    0.0000 C   0  0  0  0  0  0  0  0  0  0  0  0
    2.1434   -2.8875    0.0000 C   0  0  0  0  0  0  0  0  0  0  0  0
    2.1434   -3.7125    0.0000 F   0  0  0  0  0  0  0  0  0  0  0  0
    1.4289   -2.4750    0.0000 C   0  0  0  0  0  0  0  0  0  0  0  0
    0.7145   -2.8875    0.0000 Br  0  0  0  0  0  0  0  0  0  0  0  0
    1.4289   -1.6500    0.0000 C   0  0  0  0  0  0  0  0  0  0  0  0
  1  2  1  0  0  0  0
  2  3  1  0  0  0  0
  3  4  2  0  0  0  0
  4  5  1  0  0  0  0
  5  6  1  0  0  0  0
  6  7  2  0  0  0  0
  7  8  1  0  0  0  0
  8  9  1  0  0  0  0
  8 10  2  0  0  0  0
 10 11  1  0  0  0  0
 11 12  1  0  0  0  0
 12 13  1  0  0  0  0
 12 14  1  0  0  0  0
 10 15  1  0  0  0  0
 15 16  2  0  0  0  0
  6 16  1  0  0  0  0
  4 17  1  0  0  0  0
 17 18  2  0  0  0  0
 18 19  1  0  0  0  0
 18 20  1  0  0  0  0
 20 21  1  0  0  0  0
 20 22  2  0  0  0  0
  3 22  1  0  0  0  0
M  END
> <ID>
CPD_2842

$$$$
CPD_2847
  Mrv1822 09091914012D          

 20 21  0  0  0  0            999 V2000
    1.4289    0.0000    0.0000 C   0  0  0  0  0  0  0  0  0  0  0  0
    2.1434   -0.4125    0.0000 O   0  0  0  0  0  0  0  0  0  0  0  0
    2.1434   -1.2375    0.0000 C   0  0  0  0  0  0  0  0  0  0  0  0
    2.8579   -1.6500    0.0000 C   0  0  0  0  0  0  0  0  0  0  0  0
    3.5724   -1.2375    0.0000 N   0  0  0  0  0  0  0  0  0  0  0  0
    4.2868   -1.6500    0.0000 C   0  0  0  0  0  0  0  0  0  0  0  0
    5.0013   -1.2375    0.0000 C   0  0  0  0  0  0  0  0  0  0  0  0
    5.7158   -1.6500    0.0000 C   0  0  0  0  0  0  0  0  0  0  0  0
    5.7158   -2.4750    0.0000 N   0  0  0  0  0  0  0  0  0  0  0  0
    5.0013   -2.8875    0.0000 C   0  0  0  0  0  0  0  0  0  0  0  0
    4.2868   -2.4750    0.0000 C   0  0  0  0  0  0  0  0  0  0  0  0
    5.0013   -0.4125    0.0000 C   0  0  0  0  0  0  0  0  0  0  0  0
    5.7158   -0.0000    0.0000 O   0  0  0  0  0  0  0  0  0  0  0  0
    4.2868   -0.0000    0.0000 O   0  0  0  0  0  0  0  0  0  0  0  0
    2.8579   -2.4750    0.0000 C   0  0  0  0  0  0  0  0  0  0  0  0
    2.1434   -2.8875    0.0000 C   0  0  0  0  0  0  0  0  0  0  0  0
    2.1434   -3.7125    0.0000 F   0  0  0  0  0  0  0  0  0  0  0  0
    1.4289   -2.4750    0.0000 C   0  0  0  0  0  0  0  0  0  0  0  0
    0.7145   -2.8875    0.0000 Br  0  0  0  0  0  0  0  0  0  0  0  0
    1.4289   -1.6500    0.0000 C   0  0  0  0  0  0  0  0  0  0  0  0
  1  2  1  0  0  0  0
  2  3  1  0  0  0  0
  3  4  2  0  0  0  0
  4  5  1  0  0  0  0
  5  6  1  0  0  0  0
  6  7  2  0  0  0  0
  7  8  1  0  0  0  0
  8  9  2  0  0  0  0
  9 10  1  0  0  0  0
 10 11  2  0  0  0  0
  6 11  1  0  0  0  0
  7 12  1  0  0  0  0
 12 13  1  0  0  0  0
 12 14  2  0  0  0  0
  4 15  1  0  0  0  0
 15 16  2  0  0  0  0
 16 17  1  0  0  0  0
 16 18  1  0  0  0  0
 18 19  1  0  0  0  0
 18 20  2  0  0  0  0
  3 20  1  0  0  0  0
M  END
> <ID>
CPD_2847

$$$$
CPD_2852
  Mrv1822 09091914012D          

 23 24  0  0  0  0            999 V2000
    1.4289    0.0000    0.0000 C   0  0  0  0  0  0  0  0  0  0  0  0
    2.1434   -0.4125    0.0000 O   0  0  0  0  0  0  0  0  0  0  0  0
    2.1434   -1.2375    0.0000 C   0  0  0  0  0  0  0  0  0  0  0  0
    2.8579   -1.6500    0.0000 C   0  0  0  0  0  0  0  0  0  0  0  0
    3.5724   -1.2375    0.0000 N   0  0  0  0  0  0  0  0  0  0  0  0
    4.2868   -1.6500    0.0000 C   0  0  0  0  0  0  0  0  0  0  0  0
    5.0013   -1.2375    0.0000 C   0  0  0  0  0  0  0  0  0  0  0  0
    5.7158   -1.6500    0.0000 C   0  0  0  0  0  0  0  0  0  0  0  0
    6.4302   -1.2375    0.0000 C   0  0  0  0  0  0  0  0  0  0  0  0
    5.7158   -2.4750    0.0000 C   0  0  0  0  0  0  0  0  0  0  0  0
    5.0013   -2.8875    0.0000 C   0  0  0  0  0  0  0  0  0  0  0  0
    4.2868   -2.4750    0.0000 C   0  0  0  0  0  0  0  0  0  0  0  0
    3.5724   -2.8875    0.0000 C   0  0  0  0  0  0  0  0  0  0  0  0
    6.4302   -2.8875    0.0000 S   0  0  0  0  0  0  0  0  0  0  0  0
    7.1447   -3.3000    0.0000 N   0  0  0  0  0  0  0  0  0  0  0  0
    6.8427   -2.1730    0.0000 O   0  0  0  0  0  0  0  0  0  0  0  0
    6.0177   -3.6020    0.0000 O   0  0  0  0  0  0  0  0  0  0  0  0
    2.8579   -2.4750    0.0000 C   0  0  0  0  0  0  0  0  0  0  0  0
    2.1434   -2.8875    0.0000 C   0  0  0  0  0  0  0  0  0  0  0  0
    2.1434   -3.7125    0.0000 F   0  0  0  0  0  0  0  0  0  0  0  0
    1.4289   -2.4750    0.0000 C   0  0  0  0  0  0  0  0  0  0  0  0
    0.7145   -2.8875    0.0000 Br  0  0  0  0  0  0  0  0  0  0  0  0
    1.4289   -1.6500    0.0000 C   0  0  0  0  0  0  0  0  0  0  0  0
  1  2  1  0  0  0  0
  2  3  1  0  0  0  0
  3  4  2  0  0  0  0
  4  5  1  0  0  0  0
  5  6  1  0  0  0  0
  6  7  2  0  0  0  0
  7  8  1  0  0  0  0
  8  9  1  0  0  0  0
  8 10  2  0  0  0  0
 10 11  1  0  0  0  0
 11 12  2  0  0  0  0
  6 12  1  0  0  0  0
 12 13  1  0  0  0  0
 10 14  1  0  0  0  0
 14 15  1  0  0  0  0
 14 16  2  0  0  0  0
 14 17  2  0  0  0  0
  4 18  1  0  0  0  0
 18 19  2  0  0  0  0
 19 20  1  0  0  0  0
 19 21  1  0  0  0  0
 21 22  1  0  0  0  0
 21 23  2  0  0  0  0
  3 23  1  0  0  0  0
M  END
> <ID>
CPD_2852

$$$$
CPD_2857
  Mrv1822 09091914012D          

 21 23  0  0  0  0            999 V2000
    6.9246    5.6479    0.0000 C   0  0  0  0  0  0  0  0  0  0  0  0
    6.9246    4.8229    0.0000 O   0  0  0  0  0  0  0  0  0  0  0  0
    6.2102    4.4104    0.0000 C   0  0  0  0  0  0  0  0  0  0  0  0
    5.4957    4.8229    0.0000 O   0  0  0  0  0  0  0  0  0  0  0  0
    6.2102    3.5854    0.0000 C   0  0  0  0  0  0  0  0  0  0  0  0
    5.4957    3.1729    0.0000 N   0  0  0  0  0  0  0  0  0  0  0  0
    5.4957    2.3479    0.0000 C   0  0  0  0  0  0  0  0  0  0  0  0
    4.7812    1.9354    0.0000 C   0  0  0  0  0  0  0  0  0  0  0  0
    4.0668    2.3479    0.0000 N   0  0  0  0  0  0  0  0  0  0  0  0
    4.0668    3.1729    0.0000 C   0  0  0  0  0  0  0  0  0  0  0  0
    4.7812    3.5854    0.0000 C   0  0  0  0  0  0  0  0  0  0  0  0
    3.3523    1.9354    0.0000 C   0  0  0  0  0  0  0  0  0  0  0  0
    3.3523    1.1104    0.0000 C   0  0  0  0  0  0  0  0  0  0  0  0
    2.6378    0.6979    0.0000 C   0  0  0  0  0  0  0  0  0  0  0  0
    1.9233    1.1104    0.0000 C   0  0  0  0  0  0  0  0  0  0  0  0
    1.1387    0.8555    0.0000 C   0  0  0  0  0  0  0  0  0  0  0  0
    0.8838    0.0709    0.0000 N   0  0  0  0  0  0  0  0  0  0  0  0
    0.6538    1.5229    0.0000 N   0  0  0  0  0  0  0  0  0  0  0  0
    1.1387    2.1904    0.0000 O   0  0  0  0  0  0  0  0  0  0  0  0
    1.9233    1.9354    0.0000 C   0  0  0  0  0  0  0  0  0  0  0  0
    2.6378    2.3479    0.0000 C   0  0  0  0  0  0  0  0  0  0  0  0
  1  2  1  0  0  0  0
  2  3  1  0  0  0  0
  3  4  2  0  0  0  0
  3  5  1  0  0  0  0
  5  6  1  0  0  0  0
  6  7  1  0  0  0  0
  7  8  1  0  0  0  0
  8  9  1  0  0  0  0
  9 10  1  0  0  0  0
 10 11  1  0  0  0  0
  6 11  1  0  0  0  0
  9 12  1  0  0  0  0
 12 13  2  0  0  0  0
 13 14  1  0  0  0  0
 14 15  2  0  0  0  0
 15 16  1  0  0  0  0
 16 17  1  0  0  0  0
 16 18  2  0  0  0  0
 18 19  1  0  0  0  0
 19 20  1  0  0  0  0
 15 20  1  0  0  0  0
 20 21  2  0  0  0  0
 12 21  1  0  0  0  0
M  END
> <ID>
CPD_2857

$$$$
CPD_2862
  Mrv1822 09091914012D          

 24 26  0  0  0  0            999 V2000
   -0.7145   10.8911    0.0000 C   0  0  0  0  0  0  0  0  0  0  0  0
   -0.0000   10.4786    0.0000 O   0  0  0  0  0  0  0  0  0  0  0  0
   -0.0000    9.6536    0.0000 C   0  0  0  0  0  0  0  0  0  0  0  0
   -0.7145    9.2411    0.0000 O   0  0  0  0  0  0  0  0  0  0  0  0
    0.7145    9.2411    0.0000 C   0  0  0  0  0  0  0  0  0  0  0  0
    0.7145    8.4161    0.0000 N   0  0  0  0  0  0  0  0  0  0  0  0
    1.4289    8.0036    0.0000 C   0  0  0  0  0  0  0  0  0  0  0  0
    1.4289    7.1786    0.0000 C   0  0  0  0  0  0  0  0  0  0  0  0
    0.7145    6.7661    0.0000 N   0  0  0  0  0  0  0  0  0  0  0  0
   -0.0000    7.1786    0.0000 C   0  0  0  0  0  0  0  0  0  0  0  0
   -0.0000    8.0036    0.0000 C   0  0  0  0  0  0  0  0  0  0  0  0
    0.7145    5.9411    0.0000 C   0  0  0  0  0  0  0  0  0  0  0  0
    1.4289    5.5286    0.0000 C   0  0  0  0  0  0  0  0  0  0  0  0
    1.4289    4.7036    0.0000 C   0  0  0  0  0  0  0  0  0  0  0  0
    2.1434    4.2911    0.0000 Cl  0  0  0  0  0  0  0  0  0  0  0  0
    0.7145    4.2911    0.0000 C   0  0  0  0  0  0  0  0  0  0  0  0
    0.0000    4.7036    0.0000 C   0  0  0  0  0  0  0  0  0  0  0  0
   -0.0000    5.5286    0.0000 C   0  0  0  0  0  0  0  0  0  0  0  0
    0.7145    3.4661    0.0000 C   0  0  0  0  0  0  0  0  0  0  0  0
    1.3819    2.9812    0.0000 C   0  0  0  0  0  0  0  0  0  0  0  0
    2.1665    3.2361    0.0000 Cl  0  0  0  0  0  0  0  0  0  0  0  0
    1.1270    2.1965    0.0000 S   0  0  0  0  0  0  0  0  0  0  0  0
    0.3020    2.1965    0.0000 N   0  0  0  0  0  0  0  0  0  0  0  0
    0.0470    2.9812    0.0000 N   0  0  0  0  0  0  0  0  0  0  0  0
  1  2  1  0  0  0  0
  2  3  1  0  0  0  0
  3  4  2  0  0  0  0
  3  5  1  0  0  0  0
  5  6  1  0  0  0  0
  6  7  1  0  0  0  0
  7  8  1  0  0  0  0
  8  9  1  0  0  0  0
  9 10  1  0  0  0  0
 10 11  1  0  0  0  0
  6 11  1  0  0  0  0
  9 12  1  0  0  0  0
 12 13  2  0  0  0  0
 13 14  1  0  0  0  0
 14 15  1  0  0  0  0
 14 16  2  0  0  0  0
 16 17  1  0  0  0  0
 17 18  2  0  0  0  0
 12 18  1  0  0  0  0
 16 19  1  0  0  0  0
 19 20  2  0  0  0  0
 20 21  1  0  0  0  0
 20 22  1  0  0  0  0
 22 23  1  0  0  0  0
 23 24  2  0  0  0  0
 19 24  1  0  0  0  0
M  END
> <ID>
CPD_2862

$$$$
CPD_2867
  Mrv1822 09091914012D          

 23 25  0  0  0  0            999 V2000
    2.9646    8.0652    0.0000 C   0  0  0  0  0  0  0  0  0  0  0  0
    2.9646    7.2402    0.0000 O   0  0  0  0  0  0  0  0  0  0  0  0
    2.2501    6.8277    0.0000 C   0  0  0  0  0  0  0  0  0  0  0  0
    1.5356    7.2402    0.0000 O   0  0  0  0  0  0  0  0  0  0  0  0
    2.2501    6.0027    0.0000 C   0  0  0  0  0  0  0  0  0  0  0  0
    1.5356    5.5902    0.0000 N   0  0  0  0  0  0  0  0  0  0  0  0
    1.5356    4.7652    0.0000 C   0  0  0  0  0  0  0  0  0  0  0  0
    0.8212    4.3527    0.0000 C   0  0  0  0  0  0  0  0  0  0  0  0
    0.1067    4.7652    0.0000 N   0  0  0  0  0  0  0  0  0  0  0  0
    0.1067    5.5902    0.0000 C   0  0  0  0  0  0  0  0  0  0  0  0
    0.8212    6.0027    0.0000 C   0  0  0  0  0  0  0  0  0  0  0  0
   -0.6078    4.3527    0.0000 C   0  0  0  0  0  0  0  0  0  0  0  0
   -0.6078    3.5277    0.0000 C   0  0  0  0  0  0  0  0  0  0  0  0
   -1.3222    3.1152    0.0000 C   0  0  0  0  0  0  0  0  0  0  0  0
   -2.0367    3.5277    0.0000 C   0  0  0  0  0  0  0  0  0  0  0  0
   -2.0367    4.3527    0.0000 C   0  0  0  0  0  0  0  0  0  0  0  0
   -1.3222    4.7652    0.0000 C   0  0  0  0  0  0  0  0  0  0  0  0
   -1.3222    2.2902    0.0000 C   0  0  0  0  0  0  0  0  0  0  0  0
   -0.6548    1.8053    0.0000 N   0  0  0  0  0  0  0  0  0  0  0  0
   -0.9097    1.0206    0.0000 N   0  0  0  0  0  0  0  0  0  0  0  0
   -1.7347    1.0206    0.0000 C   0  0  0  0  0  0  0  0  0  0  0  0
   -2.2197    0.3532    0.0000 N   0  0  0  0  0  0  0  0  0  0  0  0
   -1.9897    1.8053    0.0000 C   0  0  0  0  0  0  0  0  0  0  0  0
  1  2  1  0  0  0  0
  2  3  1  0  0  0  0
  3  4  2  0  0  0  0
  3  5  1  0  0  0  0
  5  6  1  0  0  0  0
  6  7  1  0  0  0  0
  7  8  1  0  0  0  0
  8  9  1  0  0  0  0
  9 10  1  0  0  0  0
 10 11  1  0  0  0  0
  6 11  1  0  0  0  0
  9 12  1  0  0  0  0
 12 13  2  0  0  0  0
 13 14  1  0  0  0  0
 14 15  2  0  0  0  0
 15 16  1  0  0  0  0
 16 17  2  0  0  0  0
 12 17  1  0  0  0  0
 14 18  1  0  0  0  0
 18 19  2  0  0  0  0
 19 20  1  0  0  0  0
 20 21  1  0  0  0  0
 21 22  1  0  0  0  0
 21 23  2  0  0  0  0
 18 23  1  0  0  0  0
M  END
> <ID>
CPD_2867

$$$$
CPD_2872
  Mrv1822 09091914012D          

 25 26  0  0  0  0            999 V2000
    3.5724    1.2375    0.0000 C   0  0  0  0  0  0  0  0  0  0  0  0
    2.8579    0.8250    0.0000 C   0  0  0  0  0  0  0  0  0  0  0  0
    2.8579    0.0000    0.0000 N   0  0  0  0  0  0  0  0  0  0  0  0
    3.5724   -0.4125    0.0000 C   0  0  0  0  0  0  0  0  0  0  0  0
    3.5724   -1.2375    0.0000 C   0  0  0  0  0  0  0  0  0  0  0  0
    2.1434   -0.4125    0.0000 C   0  0  0  0  0  0  0  0  0  0  0  0
    1.4289    0.0000    0.0000 O   0  0  0  0  0  0  0  0  0  0  0  0
    2.1434   -1.2375    0.0000 C   0  0  0  0  0  0  0  0  0  0  0  0
    2.8579   -1.6500    0.0000 C   0  0  0  0  0  0  0  0  0  0  0  0
    2.8579   -2.4750    0.0000 C   0  0  0  0  0  0  0  0  0  0  0  0
    3.5724   -2.8875    0.0000 O   0  0  0  0  0  0  0  0  0  0  0  0
    3.5724   -3.7125    0.0000 C   0  0  0  0  0  0  0  0  0  0  0  0
    2.1434   -2.8875    0.0000 C   0  0  0  0  0  0  0  0  0  0  0  0
    2.1434   -3.7125    0.0000 O   0  0  0  0  0  0  0  0  0  0  0  0
    1.4289   -2.4750    0.0000 C   0  0  0  0  0  0  0  0  0  0  0  0
    0.7145   -2.8875    0.0000 N   0  0  0  0  0  0  0  0  0  0  0  0
    0.0000   -2.4750    0.0000 C   0  0  0  0  0  0  0  0  0  0  0  0
   -0.7145   -2.8875    0.0000 C   0  0  0  0  0  0  0  0  0  0  0  0
   -1.4289   -2.4750    0.0000 C   0  0  0  0  0  0  0  0  0  0  0  0
   -2.1434   -2.8875    0.0000 C   0  0  0  0  0  0  0  0  0  0  0  0
   -2.1434   -3.7125    0.0000 O   0  0  0  0  0  0  0  0  0  0  0  0
   -1.4289   -1.6500    0.0000 C   0  0  0  0  0  0  0  0  0  0  0  0
   -0.7145   -1.2375    0.0000 N   0  0  0  0  0  0  0  0  0  0  0  0
    0.0000   -1.6500    0.0000 C   0  0  0  0  0  0  0  0  0  0  0  0
    1.4289   -1.6500    0.0000 C   0  0  0  0  0  0  0  0  0  0  0  0
  1  2  1  0  0  0  0
  2  3  1  0  0  0  0
  3  4  1  0  0  0  0
  4  5  1  0  0  0  0
  3  6  1  0  0  0  0
  6  7  2  0  0  0  0
  6  8  1  0  0  0  0
  8  9  2  0  0  0  0
  9 10  1  0  0  0  0
 10 11  1  0  0  0  0
 11 12  1  0  0  0  0
 10 13  2  0  0  0  0
 13 14  1  0  0  0  0
 13 15  1  0  0  0  0
 15 16  1  0  0  0  0
 16 17  1  0  0  0  0
 17 18  2  0  0  0  0
 18 19  1  0  0  0  0
 19 20  1  0  0  0  0
 20 21  1  0  0  0  0
 19 22  2  0  0  0  0
 22 23  1  0  0  0  0
 23 24  2  0  0  0  0
 17 24  1  0  0  0  0
 15 25  2  0  0  0  0
  8 25  1  0  0  0  0
M  END
> <ID>
CPD_2872

$$$$
CPD_2877
  Mrv1822 09091914012D          

 26 27  0  0  0  0            999 V2000
   -1.5356    2.4134    0.0000 C   0  0  0  0  0  0  0  0  0  0  0  0
   -0.8212    2.0009    0.0000 C   0  0  0  0  0  0  0  0  0  0  0  0
   -0.1067    2.4134    0.0000 N   0  0  0  0  0  0  0  0  0  0  0  0
   -0.1067    3.2384    0.0000 C   0  0  0  0  0  0  0  0  0  0  0  0
    0.6078    3.6509    0.0000 C   0  0  0  0  0  0  0  0  0  0  0  0
    0.6078    2.0009    0.0000 C   0  0  0  0  0  0  0  0  0  0  0  0
    0.6078    1.1759    0.0000 O   0  0  0  0  0  0  0  0  0  0  0  0
    1.3222    2.4134    0.0000 C   0  0  0  0  0  0  0  0  0  0  0  0
    1.3222    3.2384    0.0000 C   0  0  0  0  0  0  0  0  0  0  0  0
    2.0367    3.6509    0.0000 C   0  0  0  0  0  0  0  0  0  0  0  0
    2.0367    4.4759    0.0000 O   0  0  0  0  0  0  0  0  0  0  0  0
    2.7512    4.8884    0.0000 C   0  0  0  0  0  0  0  0  0  0  0  0
    2.7512    3.2384    0.0000 C   0  0  0  0  0  0  0  0  0  0  0  0
    3.4656    3.6509    0.0000 O   0  0  0  0  0  0  0  0  0  0  0  0
    2.7512    2.4134    0.0000 C   0  0  0  0  0  0  0  0  0  0  0  0
    3.4656    2.0009    0.0000 N   0  0  0  0  0  0  0  0  0  0  0  0
    3.4656    1.1759    0.0000 C   0  0  0  0  0  0  0  0  0  0  0  0
    4.1331    0.6910    0.0000 C   0  0  0  0  0  0  0  0  0  0  0  0
    4.9177    0.9459    0.0000 Br  0  0  0  0  0  0  0  0  0  0  0  0
    3.8781   -0.0937    0.0000 N   0  0  0  0  0  0  0  0  0  0  0  0
    4.3631   -0.7611    0.0000 C   0  0  0  0  0  0  0  0  0  0  0  0
    5.1836   -0.6749    0.0000 C   0  0  0  0  0  0  0  0  0  0  0  0
    3.0531   -0.0937    0.0000 C   0  0  0  0  0  0  0  0  0  0  0  0
    2.5682   -0.7611    0.0000 Br  0  0  0  0  0  0  0  0  0  0  0  0
    2.7982    0.6910    0.0000 N   0  0  0  0  0  0  0  0  0  0  0  0
    2.0367    2.0009    0.0000 C   0  0  0  0  0  0  0  0  0  0  0  0
  1  2  1  0  0  0  0
  2  3  1  0  0  0  0
  3  4  1  0  0  0  0
  4  5  1  0  0  0  0
  3  6  1  0  0  0  0
  6  7  2  0  0  0  0
  6  8  1  0  0  0  0
  8  9  2  0  0  0  0
  9 10  1  0  0  0  0
 10 11  1  0  0  0  0
 11 12  1  0  0  0  0
 10 13  2  0  0  0  0
 13 14  1  0  0  0  0
 13 15  1  0  0  0  0
 15 16  1  0  0  0  0
 16 17  1  0  0  0  0
 17 18  2  0  0  0  0
 18 19  1  0  0  0  0
 18 20  1  0  0  0  0
 20 21  1  0  0  0  0
 21 22  1  0  0  0  0
 20 23  1  0  0  0  0
 23 24  1  0  0  0  0
 23 25  2  0  0  0  0
 17 25  1  0  0  0  0
 15 26  2  0  0  0  0
  8 26  1  0  0  0  0
M  END
> <ID>
CPD_2877

$$$$
CPD_2882
  Mrv1822 09091914012D          

 30 32  0  0  0  0            999 V2000
    9.0681    1.9354    0.0000 C   0  0  0  0  0  0  0  0  0  0  0  0
    8.3536    2.3479    0.0000 C   0  0  0  0  0  0  0  0  0  0  0  0
    7.6391    1.9354    0.0000 N   0  0  0  0  0  0  0  0  0  0  0  0
    7.6391    1.1104    0.0000 C   0  0  0  0  0  0  0  0  0  0  0  0
    6.9246    0.6979    0.0000 C   0  0  0  0  0  0  0  0  0  0  0  0
    6.9246    2.3479    0.0000 C   0  0  0  0  0  0  0  0  0  0  0  0
    6.9246    3.1729    0.0000 O   0  0  0  0  0  0  0  0  0  0  0  0
    6.2102    1.9354    0.0000 C   0  0  0  0  0  0  0  0  0  0  0  0
    6.2102    1.1104    0.0000 C   0  0  0  0  0  0  0  0  0  0  0  0
    5.4957    0.6979    0.0000 C   0  0  0  0  0  0  0  0  0  0  0  0
    5.4957   -0.1271    0.0000 O   0  0  0  0  0  0  0  0  0  0  0  0
    4.7812   -0.5396    0.0000 C   0  0  0  0  0  0  0  0  0  0  0  0
    4.7812    1.1104    0.0000 C   0  0  0  0  0  0  0  0  0  0  0  0
    4.0668    0.6979    0.0000 O   0  0  0  0  0  0  0  0  0  0  0  0
    4.7812    1.9354    0.0000 C   0  0  0  0  0  0  0  0  0  0  0  0
    4.0668    2.3479    0.0000 N   0  0  0  0  0  0  0  0  0  0  0  0
    3.3523    1.9354    0.0000 C   0  0  0  0  0  0  0  0  0  0  0  0
    3.3523    1.1104    0.0000 C   0  0  0  0  0  0  0  0  0  0  0  0
    2.6378    0.6979    0.0000 C   0  0  0  0  0  0  0  0  0  0  0  0
    1.9233    1.1104    0.0000 C   0  0  0  0  0  0  0  0  0  0  0  0
    1.1387    0.8555    0.0000 N   0  0  0  0  0  0  0  0  0  0  0  0
    0.6538    1.5229    0.0000 C   0  0  0  0  0  0  0  0  0  0  0  0
    1.1387    2.1904    0.0000 S   0  0  0  0  0  0  0  0  0  0  0  0
    1.9233    1.9354    0.0000 C   0  0  0  0  0  0  0  0  0  0  0  0
    2.6378    2.3479    0.0000 C   0  0  0  0  0  0  0  0  0  0  0  0
   -0.1712    1.5229    0.0000 C   0  0  0  0  0  0  0  0  0  0  0  0
   -0.5837    0.8085    0.0000 O   0  0  0  0  0  0  0  0  0  0  0  0
   -0.5837    2.2374    0.0000 O   0  0  0  0  0  0  0  0  0  0  0  0
   -1.4087    2.2374    0.0000 C   0  0  0  0  0  0  0  0  0  0  0  0
    5.4957    2.3479    0.0000 C   0  0  0  0  0  0  0  0  0  0  0  0
  1  2  1  0  0  0  0
  2  3  1  0  0  0  0
  3  4  1  0  0  0  0
  4  5  1  0  0  0  0
  3  6  1  0  0  0  0
  6  7  2  0  0  0  0
  6  8  1  0  0  0  0
  8  9  2  0  0  0  0
  9 10  1  0  0  0  0
 10 11  1  0  0  0  0
 11 12  1  0  0  0  0
 10 13  2  0  0  0  0
 13 14  1  0  0  0  0
 13 15  1  0  0  0  0
 15 16  1  0  0  0  0
 16 17  1  0  0  0  0
 17 18  2  0  0  0  0
 18 19  1  0  0  0  0
 19 20  2  0  0  0  0
 20 21  1  0  0  0  0
 21 22  2  0  0  0  0
 22 23  1  0  0  0  0
 23 24  1  0  0  0  0
 20 24  1  0  0  0  0
 24 25  2  0  0  0  0
 17 25  1  0  0  0  0
 22 26  1  0  0  0  0
 26 27  2  0  0  0  0
 26 28  1  0  0  0  0
 28 29  1  0  0  0  0
 15 30  2  0  0  0  0
  8 30  1  0  0  0  0
M  END
> <ID>
CPD_2882

$$$$
CPD_2887
  Mrv1822 09091914012D          

 28 29  0  0  0  0            999 V2000
    3.5724    1.2375    0.0000 C   0  0  0  0  0  0  0  0  0  0  0  0
    2.8579    0.8250    0.0000 C   0  0  0  0  0  0  0  0  0  0  0  0
    2.8579    0.0000    0.0000 N   0  0  0  0  0  0  0  0  0  0  0  0
    3.5724   -0.4125    0.0000 C   0  0  0  0  0  0  0  0  0  0  0  0
    3.5724   -1.2375    0.0000 C   0  0  0  0  0  0  0  0  0  0  0  0
    2.1434   -0.4125    0.0000 C   0  0  0  0  0  0  0  0  0  0  0  0
    1.4289    0.0000    0.0000 O   0  0  0  0  0  0  0  0  0  0  0  0
    2.1434   -1.2375    0.0000 C   0  0  0  0  0  0  0  0  0  0  0  0
    2.8579   -1.6500    0.0000 C   0  0  0  0  0  0  0  0  0  0  0  0
    2.8579   -2.4750    0.0000 C   0  0  0  0  0  0  0  0  0  0  0  0
    3.5724   -2.8875    0.0000 O   0  0  0  0  0  0  0  0  0  0  0  0
    3.5724   -3.7125    0.0000 C   0  0  0  0  0  0  0  0  0  0  0  0
    2.1434   -2.8875    0.0000 C   0  0  0  0  0  0  0  0  0  0  0  0
    2.1434   -3.7125    0.0000 O   0  0  0  0  0  0  0  0  0  0  0  0
    1.4289   -2.4750    0.0000 C   0  0  0  0  0  0  0  0  0  0  0  0
    0.7145   -2.8875    0.0000 N   0  0  0  0  0  0  0  0  0  0  0  0
    0.0000   -2.4750    0.0000 C   0  0  0  0  0  0  0  0  0  0  0  0
   -0.7145   -2.8875    0.0000 C   0  0  0  0  0  0  0  0  0  0  0  0
   -1.4289   -2.4750    0.0000 C   0  0  0  0  0  0  0  0  0  0  0  0
   -1.4289   -1.6500    0.0000 C   0  0  0  0  0  0  0  0  0  0  0  0
   -0.7145   -1.2375    0.0000 C   0  0  0  0  0  0  0  0  0  0  0  0
    0.0000   -1.6500    0.0000 N   0  0  0  0  0  0  0  0  0  0  0  0
   -2.1434   -2.8875    0.0000 C   0  0  0  0  0  0  0  0  0  0  0  0
   -2.1434   -3.7125    0.0000 O   0  0  0  0  0  0  0  0  0  0  0  0
   -2.8579   -2.4750    0.0000 N   0  0  0  0  0  0  0  0  0  0  0  0
   -3.5724   -2.8875    0.0000 C   0  0  0  0  0  0  0  0  0  0  0  0
   -2.8579   -1.6500    0.0000 C   0  0  0  0  0  0  0  0  0  0  0  0
    1.4289   -1.6500    0.0000 C   0  0  0  0  0  0  0  0  0  0  0  0
  1  2  1  0  0  0  0
  2  3  1  0  0  0  0
  3  4  1  0  0  0  0
  4  5  1  0  0  0  0
  3  6  1  0  0  0  0
  6  7  2  0  0  0  0
  6  8  1  0  0  0  0
  8  9  2  0  0  0  0
  9 10  1  0  0  0  0
 10 11  1  0  0  0  0
 11 12  1  0  0  0  0
 10 13  2  0  0  0  0
 13 14  1  0  0  0  0
 13 15  1  0  0  0  0
 15 16  1  0  0  0  0
 16 17  1  0  0  0  0
 17 18  2  0  0  0  0
 18 19  1  0  0  0  0
 19 20  2  0  0  0  0
 20 21  1  0  0  0  0
 21 22  2  0  0  0  0
 17 22  1  0  0  0  0
 19 23  1  0  0  0  0
 23 24  2  0  0  0  0
 23 25  1  0  0  0  0
 25 26  1  0  0  0  0
 25 27  1  0  0  0  0
 15 28  2  0  0  0  0
  8 28  1  0  0  0  0
M  END
> <ID>
CPD_2887

$$$$
CPD_2892
  Mrv1822 09091914012D          

 34 38  0  0  0  0            999 V2000
    7.6391  -11.0104    0.0000 C   0  0  0  0  0  0  0  0  0  0  0  0
    7.6391  -10.1854    0.0000 C   0  0  0  0  0  0  0  0  0  0  0  0
    6.9246   -9.7729    0.0000 O   0  0  0  0  0  0  0  0  0  0  0  0
    6.9246   -8.9479    0.0000 C   0  0  0  0  0  0  0  0  0  0  0  0
    6.2102   -8.5354    0.0000 C   0  0  0  0  0  0  0  0  0  0  0  0
    6.2102   -7.7104    0.0000 C   0  0  0  0  0  0  0  0  0  0  0  0
    6.9246   -7.2979    0.0000 C   0  0  0  0  0  0  0  0  0  0  0  0
    7.6391   -7.7104    0.0000 C   0  0  0  0  0  0  0  0  0  0  0  0
    7.6391   -8.5354    0.0000 C   0  0  0  0  0  0  0  0  0  0  0  0
    6.9246   -6.4729    0.0000 N   0  0  0  0  0  0  0  0  0  0  0  0
    7.6391   -6.0604    0.0000 C   0  0  0  0  0  0  0  0  0  0  0  0
    7.6391   -5.2354    0.0000 C   0  0  0  0  0  0  0  0  0  0  0  0
    6.9246   -4.8229    0.0000 Cl  0  0  0  0  0  0  0  0  0  0  0  0
    8.3536   -4.8229    0.0000 C   0  0  0  0  0  0  0  0  0  0  0  0
    8.3536   -3.9979    0.0000 F   0  0  0  0  0  0  0  0  0  0  0  0
    9.0681   -5.2354    0.0000 C   0  0  0  0  0  0  0  0  0  0  0  0
    9.7825   -4.8229    0.0000 N   0  0  0  0  0  0  0  0  0  0  0  0
   10.4970   -5.2354    0.0000 C   0  0  0  0  0  0  0  0  0  0  0  0
   10.4970   -6.0604    0.0000 C   0  0  0  0  0  0  0  0  0  0  0  0
    9.7825   -6.4729    0.0000 C   0  0  0  0  0  0  0  0  0  0  0  0
    9.0681   -6.0604    0.0000 C   0  0  0  0  0  0  0  0  0  0  0  0
    8.3536   -6.4729    0.0000 C   0  0  0  0  0  0  0  0  0  0  0  0
    6.2102   -6.0604    0.0000 S   0  0  0  0  0  0  0  0  0  0  0  0
    6.6227   -5.3460    0.0000 O   0  0  0  0  0  0  0  0  0  0  0  0
    5.7977   -6.7749    0.0000 O   0  0  0  0  0  0  0  0  0  0  0  0
    5.4957   -5.6479    0.0000 C   0  0  0  0  0  0  0  0  0  0  0  0
    4.7812   -6.0604    0.0000 C   0  0  0  0  0  0  0  0  0  0  0  0
    4.0668   -5.6479    0.0000 N   0  0  0  0  0  0  0  0  0  0  0  0
    3.2821   -5.9029    0.0000 C   0  0  0  0  0  0  0  0  0  0  0  0
    2.7972   -5.2354    0.0000 N   0  0  0  0  0  0  0  0  0  0  0  0
    3.2821   -4.5680    0.0000 N   0  0  0  0  0  0  0  0  0  0  0  0
    4.0668   -4.8229    0.0000 C   0  0  0  0  0  0  0  0  0  0  0  0
    4.7812   -4.4104    0.0000 C   0  0  0  0  0  0  0  0  0  0  0  0
    5.4957   -4.8229    0.0000 C   0  0  0  0  0  0  0  0  0  0  0  0
  1  2  1  0  0  0  0
  2  3  1  0  0  0  0
  3  4  1  0  0  0  0
  4  5  2  0  0  0  0
  5  6  1  0  0  0  0
  6  7  2  0  0  0  0
  7  8  1  0  0  0  0
  8  9  2  0  0  0  0
  4  9  1  0  0  0  0
  7 10  1  0  0  0  0
 10 11  1  0  0  0  0
 11 12  2  0  0  0  0
 12 13  1  0  0  0  0
 12 14  1  0  0  0  0
 14 15  1  0  0  0  0
 14 16  2  0  0  0  0
 16 17  1  0  0  0  0
 17 18  2  0  0  0  0
 18 19  1  0  0  0  0
 19 20  2  0  0  0  0
 20 21  1  0  0  0  0
 16 21  1  0  0  0  0
 21 22  2  0  0  0  0
 11 22  1  0  0  0  0
 10 23  1  0  0  0  0
 23 24  2  0  0  0  0
 23 25  2  0  0  0  0
 23 26  1  0  0  0  0
 26 27  2  0  0  0  0
 27 28  1  0  0  0  0
 28 29  1  0  0  0  0
 29 30  2  0  0  0  0
 30 31  1  0  0  0  0
 31 32  2  0  0  0  0
 28 32  1  0  0  0  0
 32 33  1  0  0  0  0
 33 34  2  0  0  0  0
 26 34  1  0  0  0  0
M  END
> <ID>
CPD_2892

$$$$
CPD_2897
  Mrv1822 09091914012D          

 37 41  0  0  0  0            999 V2000
    7.0714    3.1729    0.0000 C   0  0  0  0  0  0  0  0  0  0  0  0
    6.3569    2.7604    0.0000 C   0  0  0  0  0  0  0  0  0  0  0  0
    6.3569    1.9354    0.0000 O   0  0  0  0  0  0  0  0  0  0  0  0
    5.6424    1.5229    0.0000 C   0  0  0  0  0  0  0  0  0  0  0  0
    5.6424    0.6979    0.0000 C   0  0  0  0  0  0  0  0  0  0  0  0
    4.9279    0.2854    0.0000 C   0  0  0  0  0  0  0  0  0  0  0  0
    4.2135    0.6979    0.0000 C   0  0  0  0  0  0  0  0  0  0  0  0
    4.2135    1.5229    0.0000 C   0  0  0  0  0  0  0  0  0  0  0  0
    4.9279    1.9354    0.0000 C   0  0  0  0  0  0  0  0  0  0  0  0
    3.4990    0.2854    0.0000 N   0  0  0  0  0  0  0  0  0  0  0  0
    3.4990   -0.5396    0.0000 C   0  0  0  0  0  0  0  0  0  0  0  0
    4.2135   -0.9521    0.0000 C   0  0  0  0  0  0  0  0  0  0  0  0
    4.2135   -1.7771    0.0000 C   0  0  0  0  0  0  0  0  0  0  0  0
    3.4990   -2.1896    0.0000 C   0  0  0  0  0  0  0  0  0  0  0  0
    2.7845   -1.7771    0.0000 C   0  0  0  0  0  0  0  0  0  0  0  0
    2.7845   -0.9521    0.0000 C   0  0  0  0  0  0  0  0  0  0  0  0
    3.4990   -3.0146    0.0000 C   0  0  0  0  0  0  0  0  0  0  0  0
    4.2135   -3.4271    0.0000 C   0  0  0  0  0  0  0  0  0  0  0  0
    4.2135   -4.2521    0.0000 C   0  0  0  0  0  0  0  0  0  0  0  0
    3.4990   -4.6646    0.0000 C   0  0  0  0  0  0  0  0  0  0  0  0
    3.4990   -5.4896    0.0000 F   0  0  0  0  0  0  0  0  0  0  0  0
    2.7845   -4.2521    0.0000 C   0  0  0  0  0  0  0  0  0  0  0  0
    2.0701   -4.6646    0.0000 C   0  0  0  0  0  0  0  0  0  0  0  0
    1.3556   -4.2521    0.0000 N   0  0  0  0  0  0  0  0  0  0  0  0
    2.7845   -3.4271    0.0000 C   0  0  0  0  0  0  0  0  0  0  0  0
    2.7845    0.6979    0.0000 S   0  0  0  0  0  0  0  0  0  0  0  0
    2.3720   -0.0165    0.0000 O   0  0  0  0  0  0  0  0  0  0  0  0
    3.1970    1.4124    0.0000 O   0  0  0  0  0  0  0  0  0  0  0  0
    2.0701    1.1104    0.0000 C   0  0  0  0  0  0  0  0  0  0  0  0
    1.3556    0.6979    0.0000 C   0  0  0  0  0  0  0  0  0  0  0  0
    0.6411    1.1104    0.0000 N   0  0  0  0  0  0  0  0  0  0  0  0
   -0.1435    0.8555    0.0000 C   0  0  0  0  0  0  0  0  0  0  0  0
   -0.6284    1.5229    0.0000 N   0  0  0  0  0  0  0  0  0  0  0  0
   -0.1435    2.1904    0.0000 N   0  0  0  0  0  0  0  0  0  0  0  0
    0.6411    1.9354    0.0000 C   0  0  0  0  0  0  0  0  0  0  0  0
    1.3556    2.3479    0.0000 C   0  0  0  0  0  0  0  0  0  0  0  0
    2.0701    1.9354    0.0000 C   0  0  0  0  0  0  0  0  0  0  0  0
  1  2  1  0  0  0  0
  2  3  1  0  0  0  0
  3  4  1  0  0  0  0
  4  5  2  0  0  0  0
  5  6  1  0  0  0  0
  6  7  2  0  0  0  0
  7  8  1  0  0  0  0
  8  9  2  0  0  0  0
  4  9  1  0  0  0  0
  7 10  1  0  0  0  0
 10 11  1  0  0  0  0
 11 12  2  0  0  0  0
 12 13  1  0  0  0  0
 13 14  2  0  0  0  0
 14 15  1  0  0  0  0
 15 16  2  0  0  0  0
 11 16  1  0  0  0  0
 14 17  1  0  0  0  0
 17 18  2  0  0  0  0
 18 19  1  0  0  0  0
 19 20  2  0  0  0  0
 20 21  1  0  0  0  0
 20 22  1  0  0  0  0
 22 23  1  0  0  0  0
 23 24  1  0  0  0  0
 22 25  2  0  0  0  0
 17 25  1  0  0  0  0
 10 26  1  0  0  0  0
 26 27  2  0  0  0  0
 26 28  2  0  0  0  0
 26 29  1  0  0  0  0
 29 30  2  0  0  0  0
 30 31  1  0  0  0  0
 31 32  1  0  0  0  0
 32 33  2  0  0  0  0
 33 34  1  0  0  0  0
 34 35  2  0  0  0  0
 31 35  1  0  0  0  0
 35 36  1  0  0  0  0
 36 37  2  0  0  0  0
 29 37  1  0  0  0  0
M  END
> <ID>
CPD_2897

$$$$
CPD_2902
  Mrv1822 09091914012D          

 33 36  0  0  0  0            999 V2000
    7.0714    3.1729    0.0000 C   0  0  0  0  0  0  0  0  0  0  0  0
    6.3569    2.7604    0.0000 C   0  0  0  0  0  0  0  0  0  0  0  0
    6.3569    1.9354    0.0000 O   0  0  0  0  0  0  0  0  0  0  0  0
    5.6424    1.5229    0.0000 C   0  0  0  0  0  0  0  0  0  0  0  0
    5.6424    0.6979    0.0000 C   0  0  0  0  0  0  0  0  0  0  0  0
    4.9279    0.2854    0.0000 C   0  0  0  0  0  0  0  0  0  0  0  0
    4.2135    0.6979    0.0000 C   0  0  0  0  0  0  0  0  0  0  0  0
    4.2135    1.5229    0.0000 C   0  0  0  0  0  0  0  0  0  0  0  0
    4.9279    1.9354    0.0000 C   0  0  0  0  0  0  0  0  0  0  0  0
    3.4990    0.2854    0.0000 N   0  0  0  0  0  0  0  0  0  0  0  0
    3.4990   -0.5396    0.0000 C   0  0  0  0  0  0  0  0  0  0  0  0
    4.2135   -0.9521    0.0000 C   0  0  0  0  0  0  0  0  0  0  0  0
    4.9279   -0.5396    0.0000 O   0  0  0  0  0  0  0  0  0  0  0  0
    5.6424   -0.9521    0.0000 C   0  0  0  0  0  0  0  0  0  0  0  0
    4.2135   -1.7771    0.0000 C   0  0  0  0  0  0  0  0  0  0  0  0
    4.9279   -2.1896    0.0000 F   0  0  0  0  0  0  0  0  0  0  0  0
    3.4990   -2.1896    0.0000 C   0  0  0  0  0  0  0  0  0  0  0  0
    2.7845   -1.7771    0.0000 C   0  0  0  0  0  0  0  0  0  0  0  0
    2.0701   -2.1896    0.0000 C   0  0  0  0  0  0  0  0  0  0  0  0
    1.3556   -1.7771    0.0000 N   0  0  0  0  0  0  0  0  0  0  0  0
    2.7845   -0.9521    0.0000 C   0  0  0  0  0  0  0  0  0  0  0  0
    2.7845    0.6979    0.0000 S   0  0  0  0  0  0  0  0  0  0  0  0
    3.1970    1.4124    0.0000 O   0  0  0  0  0  0  0  0  0  0  0  0
    2.3720   -0.0165    0.0000 O   0  0  0  0  0  0  0  0  0  0  0  0
    2.0701    1.1104    0.0000 C   0  0  0  0  0  0  0  0  0  0  0  0
    1.3556    0.6979    0.0000 C   0  0  0  0  0  0  0  0  0  0  0  0
    0.6411    1.1104    0.0000 N   0  0  0  0  0  0  0  0  0  0  0  0
   -0.1435    0.8555    0.0000 C   0  0  0  0  0  0  0  0  0  0  0  0
   -0.6284    1.5229    0.0000 N   0  0  0  0  0  0  0  0  0  0  0  0
   -0.1435    2.1904    0.0000 N   0  0  0  0  0  0  0  0  0  0  0  0
    0.6411    1.9354    0.0000 C   0  0  0  0  0  0  0  0  0  0  0  0
    1.3556    2.3479    0.0000 C   0  0  0  0  0  0  0  0  0  0  0  0
    2.0701    1.9354    0.0000 C   0  0  0  0  0  0  0  0  0  0  0  0
  1  2  1  0  0  0  0
  2  3  1  0  0  0  0
  3  4  1  0  0  0  0
  4  5  2  0  0  0  0
  5  6  1  0  0  0  0
  6  7  2  0  0  0  0
  7  8  1  0  0  0  0
  8  9  2  0  0  0  0
  4  9  1  0  0  0  0
  7 10  1  0  0  0  0
 10 11  1  0  0  0  0
 11 12  2  0  0  0  0
 12 13  1  0  0  0  0
 13 14  1  0  0  0  0
 12 15  1  0  0  0  0
 15 16  1  0  0  0  0
 15 17  2  0  0  0  0
 17 18  1  0  0  0  0
 18 19  1  0  0  0  0
 19 20  1  0  0  0  0
 18 21  2  0  0  0  0
 11 21  1  0  0  0  0
 10 22  1  0  0  0  0
 22 23  2  0  0  0  0
 22 24  2  0  0  0  0
 22 25  1  0  0  0  0
 25 26  2  0  0  0  0
 26 27  1  0  0  0  0
 27 28  1  0  0  0  0
 28 29  2  0  0  0  0
 29 30  1  0  0  0  0
 30 31  2  0  0  0  0
 27 31  1  0  0  0  0
 31 32  1  0  0  0  0
 32 33  2  0  0  0  0
 25 33  1  0  0  0  0
M  END
> <ID>
CPD_2902

$$$$
CPD_2907
  Mrv1822 09091914012D          

 26 29  0  0  1  0            999 V2000
    2.0367   -1.2991    0.0000 C   0  0  0  0  0  0  0  0  0  0  0  0
    2.7512   -1.7116    0.0000 N   0  0  0  0  0  0  0  0  0  0  0  0
    3.4656   -1.2991    0.0000 C   0  0  0  0  0  0  0  0  0  0  0  0
    3.4656   -0.4741    0.0000 C   0  0  0  0  0  0  0  0  0  0  0  0
    2.7512   -0.0616    0.0000 C   0  0  0  0  0  0  0  0  0  0  0  0
    2.7512    0.7634    0.0000 C   0  0  0  0  0  0  0  0  0  0  0  0
    3.4656    1.1759    0.0000 O   0  0  0  0  0  0  0  0  0  0  0  0
    4.1801    0.7634    0.0000 C   0  0  0  0  0  0  0  0  0  0  0  0
    4.1801   -0.0616    0.0000 C   0  0  0  0  0  0  0  0  0  0  0  0
    2.7512   -2.5366    0.0000 C   0  0  0  0  0  0  0  0  0  0  0  0
    3.4186   -3.0215    0.0000 C   0  0  0  0  0  0  0  0  0  0  0  0
    3.1637   -3.8062    0.0000 C   0  0  0  0  0  0  0  0  0  0  0  0
    2.3387   -3.8062    0.0000 N   0  0  0  0  0  0  0  0  0  0  0  0
    2.0837   -3.0215    0.0000 C   0  0  0  0  0  0  0  0  0  0  0  0
    1.8538   -4.4736    0.0000 C   0  0  0  0  0  0  0  0  0  0  0  0
    2.1893   -5.2273    0.0000 C   0  0  0  0  0  0  0  0  0  0  0  0
    1.7044   -5.8947    0.0000 C   0  0  0  0  0  0  0  0  0  0  0  0
    0.8839   -5.8085    0.0000 C   0  0  0  0  0  0  0  0  0  0  0  0
    0.5484   -5.0548    0.0000 C   0  0  0  0  0  0  0  0  0  0  0  0
    1.0333   -4.3874    0.0000 C   0  0  0  0  0  0  0  0  0  0  0  0
   -0.2721   -4.9686    0.0000 C   0  0  2  0  0  0  0  0  0  0  0  0
   -0.7571   -5.6360    0.0000 C   0  0  0  0  0  0  0  0  0  0  0  0
   -1.5775   -5.5498    0.0000 C   0  0  0  0  0  0  0  0  0  0  0  0
   -1.9131   -4.7961    0.0000 C   0  0  0  0  0  0  0  0  0  0  0  0
   -1.4282   -4.1286    0.0000 C   0  0  0  0  0  0  0  0  0  0  0  0
   -0.6077   -4.2149    0.0000 N   0  0  0  0  0  0  0  0  0  0  0  0
  1  2  1  0  0  0  0
  2  3  1  0  0  0  0
  3  4  1  0  0  0  0
  4  5  1  0  0  0  0
  5  6  1  0  0  0  0
  6  7  1  0  0  0  0
  7  8  1  0  0  0  0
  8  9  1  0  0  0  0
  4  9  1  0  0  0  0
  2 10  1  0  0  0  0
 10 11  1  0  0  0  0
 11 12  1  0  0  0  0
 12 13  1  0  0  0  0
 13 14  1  0  0  0  0
 10 14  1  0  0  0  0
 13 15  1  0  0  0  0
 15 16  2  0  0  0  0
 16 17  1  0  0  0  0
 17 18  2  0  0  0  0
 18 19  1  0  0  0  0
 19 20  2  0  0  0  0
 15 20  1  0  0  0  0
 21 19  1  6  0  0  0
 21 22  1  0  0  0  0
 22 23  1  0  0  0  0
 23 24  1  0  0  0  0
 24 25  1  0  0  0  0
 25 26  1  0  0  0  0
 21 26  1  0  0  0  0
M  END
> <ID>
CPD_2907

$$$$
CPD_2912
  Mrv1822 09091914012D          

 32 35  0  0  0  0            999 V2000
   -0.6078   -1.2991    0.0000 C   0  0  0  0  0  0  0  0  0  0  0  0
    0.1067   -1.7116    0.0000 N   0  0  0  0  0  0  0  0  0  0  0  0
    0.8212   -1.2991    0.0000 C   0  0  0  0  0  0  0  0  0  0  0  0
    0.8212   -0.4741    0.0000 C   0  0  0  0  0  0  0  0  0  0  0  0
    0.1067   -0.0616    0.0000 C   0  0  0  0  0  0  0  0  0  0  0  0
    0.1067    0.7634    0.0000 C   0  0  0  0  0  0  0  0  0  0  0  0
    0.8212    1.1759    0.0000 O   0  0  0  0  0  0  0  0  0  0  0  0
    1.5356    0.7634    0.0000 C   0  0  0  0  0  0  0  0  0  0  0  0
    1.5356   -0.0616    0.0000 C   0  0  0  0  0  0  0  0  0  0  0  0
    0.1067   -2.5366    0.0000 C   0  0  0  0  0  0  0  0  0  0  0  0
    0.7741   -3.0215    0.0000 C   0  0  0  0  0  0  0  0  0  0  0  0
    0.5192   -3.8062    0.0000 C   0  0  0  0  0  0  0  0  0  0  0  0
   -0.3058   -3.8062    0.0000 N   0  0  0  0  0  0  0  0  0  0  0  0
   -0.5607   -3.0215    0.0000 C   0  0  0  0  0  0  0  0  0  0  0  0
   -0.7907   -4.4736    0.0000 C   0  0  0  0  0  0  0  0  0  0  0  0
   -0.4552   -5.2273    0.0000 C   0  0  0  0  0  0  0  0  0  0  0  0
   -0.9401   -5.8947    0.0000 C   0  0  0  0  0  0  0  0  0  0  0  0
   -1.7606   -5.8085    0.0000 C   0  0  0  0  0  0  0  0  0  0  0  0
   -2.0961   -5.0548    0.0000 C   0  0  0  0  0  0  0  0  0  0  0  0
   -2.9166   -4.9686    0.0000 F   0  0  0  0  0  0  0  0  0  0  0  0
   -1.6112   -4.3874    0.0000 C   0  0  0  0  0  0  0  0  0  0  0  0
    0.3653   -5.3135    0.0000 C   0  0  0  0  0  0  0  0  0  0  0  0
    0.8502   -4.6461    0.0000 O   0  0  0  0  0  0  0  0  0  0  0  0
    0.7009   -6.0672    0.0000 C   0  0  0  0  0  0  0  0  0  0  0  0
    1.5214   -6.1534    0.0000 C   0  0  0  0  0  0  0  0  0  0  0  0
    1.8569   -6.9071    0.0000 C   0  0  0  0  0  0  0  0  0  0  0  0
    1.3720   -7.5745    0.0000 N   0  0  0  0  0  0  0  0  0  0  0  0
    0.5515   -7.4883    0.0000 C   0  0  0  0  0  0  0  0  0  0  0  0
    0.2160   -6.7346    0.0000 C   0  0  0  0  0  0  0  0  0  0  0  0
    1.7076   -8.3282    0.0000 C   0  0  0  0  0  0  0  0  0  0  0  0
    2.5280   -8.4144    0.0000 C   0  0  0  0  0  0  0  0  0  0  0  0
    1.2226   -8.9956    0.0000 O   0  0  0  0  0  0  0  0  0  0  0  0
  1  2  1  0  0  0  0
  2  3  1  0  0  0  0
  3  4  1  0  0  0  0
  4  5  1  0  0  0  0
  5  6  1  0  0  0  0
  6  7  1  0  0  0  0
  7  8  1  0  0  0  0
  8  9  1  0  0  0  0
  4  9  1  0  0  0  0
  2 10  1  0  0  0  0
 10 11  1  0  0  0  0
 11 12  1  0  0  0  0
 12 13  1  0  0  0  0
 13 14  1  0  0  0  0
 10 14  1  0  0  0  0
 13 15  1  0  0  0  0
 15 16  2  0  0  0  0
 16 17  1  0  0  0  0
 17 18  2  0  0  0  0
 18 19  1  0  0  0  0
 19 20  1  0  0  0  0
 19 21  2  0  0  0  0
 15 21  1  0  0  0  0
 16 22  1  0  0  0  0
 22 23  2  0  0  0  0
 22 24  1  0  0  0  0
 24 25  1  0  0  0  0
 25 26  1  0  0  0  0
 26 27  1  0  0  0  0
 27 28  1  0  0  0  0
 28 29  1  0  0  0  0
 24 29  1  0  0  0  0
 27 30  1  0  0  0  0
 30 31  1  0  0  0  0
 30 32  2  0  0  0  0
M  END
> <ID>
CPD_2912

$$$$
CPD_2917
  Mrv1822 09091914012D          

 24 26  0  0  0  0            999 V2000
    0.0000    0.0000    0.0000 C   0  0  0  0  0  0  0  0  0  0  0  0
    0.7145   -0.4125    0.0000 N   0  0  0  0  0  0  0  0  0  0  0  0
    1.4289   -0.0000    0.0000 C   0  0  0  0  0  0  0  0  0  0  0  0
    1.4289    0.8250    0.0000 C   0  0  0  0  0  0  0  0  0  0  0  0
    0.7145    1.2375    0.0000 C   0  0  0  0  0  0  0  0  0  0  0  0
    0.7145    2.0625    0.0000 C   0  0  0  0  0  0  0  0  0  0  0  0
    1.4289    2.4750    0.0000 O   0  0  0  0  0  0  0  0  0  0  0  0
    2.1434    2.0625    0.0000 C   0  0  0  0  0  0  0  0  0  0  0  0
    2.1434    1.2375    0.0000 C   0  0  0  0  0  0  0  0  0  0  0  0
    0.7145   -1.2375    0.0000 C   0  0  0  0  0  0  0  0  0  0  0  0
    1.3819   -1.7224    0.0000 C   0  0  0  0  0  0  0  0  0  0  0  0
    1.1270   -2.5070    0.0000 C   0  0  0  0  0  0  0  0  0  0  0  0
    0.3020   -2.5070    0.0000 N   0  0  0  0  0  0  0  0  0  0  0  0
    0.0470   -1.7224    0.0000 C   0  0  0  0  0  0  0  0  0  0  0  0
   -0.1830   -3.1745    0.0000 C   0  0  0  0  0  0  0  0  0  0  0  0
    0.1526   -3.9282    0.0000 N   0  0  0  0  0  0  0  0  0  0  0  0
   -0.3323   -4.5956    0.0000 C   0  0  0  0  0  0  0  0  0  0  0  0
   -1.1528   -4.5094    0.0000 C   0  0  0  0  0  0  0  0  0  0  0  0
   -1.4884   -3.7557    0.0000 C   0  0  0  0  0  0  0  0  0  0  0  0
   -1.0034   -3.0882    0.0000 C   0  0  0  0  0  0  0  0  0  0  0  0
   -1.3390   -2.3346    0.0000 S   0  0  0  0  0  0  0  0  0  0  0  0
   -1.6745   -1.5809    0.0000 N   0  0  0  0  0  0  0  0  0  0  0  0
   -0.5853   -1.9990    0.0000 O   0  0  0  0  0  0  0  0  0  0  0  0
   -2.0927   -2.6701    0.0000 O   0  0  0  0  0  0  0  0  0  0  0  0
  1  2  1  0  0  0  0
  2  3  1  0  0  0  0
  3  4  1  0  0  0  0
  4  5  1  0  0  0  0
  5  6  1  0  0  0  0
  6  7  1  0  0  0  0
  7  8  1  0  0  0  0
  8  9  1  0  0  0  0
  4  9  1  0  0  0  0
  2 10  1  0  0  0  0
 10 11  1  0  0  0  0
 11 12  1  0  0  0  0
 12 13  1  0  0  0  0
 13 14  1  0  0  0  0
 10 14  1  0  0  0  0
 13 15  1  0  0  0  0
 15 16  2  0  0  0  0
 16 17  1  0  0  0  0
 17 18  2  0  0  0  0
 18 19  1  0  0  0  0
 19 20  2  0  0  0  0
 15 20  1  0  0  0  0
 20 21  1  0  0  0  0
 21 22  1  0  0  0  0
 21 23  2  0  0  0  0
 21 24  2  0  0  0  0
M  END
> <ID>
CPD_2917

$$$$
CPD_2922
  Mrv1822 09091914012D          

 30 33  0  0  0  0            999 V2000
   -0.2890    2.6757    0.0000 C   0  0  0  0  0  0  0  0  0  0  0  0
    0.5315    2.7620    0.0000 N   0  0  0  0  0  0  0  0  0  0  0  0
    0.8671    3.5157    0.0000 C   0  0  0  0  0  0  0  0  0  0  0  0
    0.3822    4.1831    0.0000 C   0  0  0  0  0  0  0  0  0  0  0  0
   -0.4383    4.0969    0.0000 C   0  0  0  0  0  0  0  0  0  0  0  0
   -0.9232    4.7643    0.0000 C   0  0  0  0  0  0  0  0  0  0  0  0
   -0.5877    5.5180    0.0000 O   0  0  0  0  0  0  0  0  0  0  0  0
    0.2328    5.6042    0.0000 C   0  0  0  0  0  0  0  0  0  0  0  0
    0.7177    4.9368    0.0000 C   0  0  0  0  0  0  0  0  0  0  0  0
    1.0164    2.0945    0.0000 C   0  0  0  0  0  0  0  0  0  0  0  0
    1.8414    2.0945    0.0000 C   0  0  0  0  0  0  0  0  0  0  0  0
    2.0964    1.3099    0.0000 C   0  0  0  0  0  0  0  0  0  0  0  0
    1.4289    0.8250    0.0000 N   0  0  0  0  0  0  0  0  0  0  0  0
    0.7615    1.3099    0.0000 C   0  0  0  0  0  0  0  0  0  0  0  0
    1.4289    0.0000    0.0000 C   0  0  0  0  0  0  0  0  0  0  0  0
    2.1434   -0.4125    0.0000 C   0  0  0  0  0  0  0  0  0  0  0  0
    2.8579    0.0000    0.0000 C   0  0  0  0  0  0  0  0  0  0  0  0
    3.5724   -0.4125    0.0000 C   0  0  0  0  0  0  0  0  0  0  0  0
    3.5724   -1.2375    0.0000 C   0  0  0  0  0  0  0  0  0  0  0  0
    2.8579   -1.6500    0.0000 C   0  0  0  0  0  0  0  0  0  0  0  0
    2.1434   -1.2375    0.0000 C   0  0  0  0  0  0  0  0  0  0  0  0
    1.4289   -1.6500    0.0000 C   0  0  0  0  0  0  0  0  0  0  0  0
    0.7145   -1.2375    0.0000 C   0  0  0  0  0  0  0  0  0  0  0  0
    0.7145   -0.4125    0.0000 C   0  0  0  0  0  0  0  0  0  0  0  0
    1.4289   -2.4750    0.0000 C   0  0  0  0  0  0  0  0  0  0  0  0
    2.1434   -2.8875    0.0000 O   0  0  0  0  0  0  0  0  0  0  0  0
    0.7145   -2.8875    0.0000 N   0  0  0  0  0  0  0  0  0  0  0  0
    0.7145   -3.7125    0.0000 C   0  0  0  0  0  0  0  0  0  0  0  0
    0.0000   -4.1250    0.0000 C   0  0  0  0  0  0  0  0  0  0  0  0
    0.0000   -4.9500    0.0000 O   0  0  0  0  0  0  0  0  0  0  0  0
  1  2  1  0  0  0  0
  2  3  1  0  0  0  0
  3  4  1  0  0  0  0
  4  5  1  0  0  0  0
  5  6  1  0  0  0  0
  6  7  1  0  0  0  0
  7  8  1  0  0  0  0
  8  9  1  0  0  0  0
  4  9  1  0  0  0  0
  2 10  1  0  0  0  0
 10 11  1  0  0  0  0
 11 12  1  0  0  0  0
 12 13  1  0  0  0  0
 13 14  1  0  0  0  0
 10 14  1  0  0  0  0
 13 15  1  0  0  0  0
 15 16  2  0  0  0  0
 16 17  1  0  0  0  0
 17 18  2  0  0  0  0
 18 19  1  0  0  0  0
 19 20  2  0  0  0  0
 20 21  1  0  0  0  0
 16 21  1  0  0  0  0
 21 22  2  0  0  0  0
 22 23  1  0  0  0  0
 23 24  2  0  0  0  0
 15 24  1  0  0  0  0
 22 25  1  0  0  0  0
 25 26  2  0  0  0  0
 25 27  1  0  0  0  0
 27 28  1  0  0  0  0
 28 29  1  0  0  0  0
 29 30  1  0  0  0  0
M  END
> <ID>
CPD_2922

$$$$
CPD_2927
  Mrv1822 09091914012D          

 31 34  0  0  0  0            999 V2000
    6.3569    2.7604    0.0000 C   0  0  0  0  0  0  0  0  0  0  0  0
    6.3569    1.9354    0.0000 C   0  0  0  0  0  0  0  0  0  0  0  0
    5.6424    1.5229    0.0000 C   0  0  0  0  0  0  0  0  0  0  0  0
    5.6424    0.6979    0.0000 C   0  0  0  0  0  0  0  0  0  0  0  0
    4.9279    0.2854    0.0000 C   0  0  0  0  0  0  0  0  0  0  0  0
    4.2135    0.6979    0.0000 C   0  0  0  0  0  0  0  0  0  0  0  0
    4.2135    1.5229    0.0000 C   0  0  0  0  0  0  0  0  0  0  0  0
    4.9279    1.9354    0.0000 C   0  0  0  0  0  0  0  0  0  0  0  0
    3.4990    0.2854    0.0000 N   0  0  0  0  0  0  0  0  0  0  0  0
    3.4990   -0.5396    0.0000 C   0  0  0  0  0  0  0  0  0  0  0  0
    4.2135   -0.9521    0.0000 C   0  0  0  0  0  0  0  0  0  0  0  0
    4.2135   -1.7771    0.0000 C   0  0  0  0  0  0  0  0  0  0  0  0
    3.4990   -2.1896    0.0000 C   0  0  0  0  0  0  0  0  0  0  0  0
    2.7845   -1.7771    0.0000 C   0  0  0  0  0  0  0  0  0  0  0  0
    2.0701   -2.1896    0.0000 F   0  0  0  0  0  0  0  0  0  0  0  0
    2.7845   -0.9521    0.0000 C   0  0  0  0  0  0  0  0  0  0  0  0
    4.9279   -0.5396    0.0000 C   0  0  0  0  0  0  0  0  0  0  0  0
    5.6424   -0.1271    0.0000 N   0  0  0  0  0  0  0  0  0  0  0  0
    2.7845    0.6979    0.0000 S   0  0  0  0  0  0  0  0  0  0  0  0
    3.1970    1.4124    0.0000 O   0  0  0  0  0  0  0  0  0  0  0  0
    2.3720   -0.0165    0.0000 O   0  0  0  0  0  0  0  0  0  0  0  0
    2.0701    1.1104    0.0000 C   0  0  0  0  0  0  0  0  0  0  0  0
    1.3556    0.6979    0.0000 C   0  0  0  0  0  0  0  0  0  0  0  0
    0.6411    1.1104    0.0000 N   0  0  0  0  0  0  0  0  0  0  0  0
   -0.1435    0.8555    0.0000 C   0  0  0  0  0  0  0  0  0  0  0  0
   -0.3984    0.0709    0.0000 C   0  0  0  0  0  0  0  0  0  0  0  0
   -0.6284    1.5229    0.0000 N   0  0  0  0  0  0  0  0  0  0  0  0
   -0.1435    2.1904    0.0000 N   0  0  0  0  0  0  0  0  0  0  0  0
    0.6411    1.9354    0.0000 C   0  0  0  0  0  0  0  0  0  0  0  0
    1.3556    2.3479    0.0000 C   0  0  0  0  0  0  0  0  0  0  0  0
    2.0701    1.9354    0.0000 C   0  0  0  0  0  0  0  0  0  0  0  0
  1  2  1  0  0  0  0
  2  3  1  0  0  0  0
  3  4  2  0  0  0  0
  4  5  1  0  0  0  0
  5  6  2  0  0  0  0
  6  7  1  0  0  0  0
  7  8  2  0  0  0  0
  3  8  1  0  0  0  0
  6  9  1  0  0  0  0
  9 10  1  0  0  0  0
 10 11  2  0  0  0  0
 11 12  1  0  0  0  0
 12 13  2  0  0  0  0
 13 14  1  0  0  0  0
 14 15  1  0  0  0  0
 14 16  2  0  0  0  0
 10 16  1  0  0  0  0
 11 17  1  0  0  0  0
 17 18  3  0  0  0  0
  9 19  1  0  0  0  0
 19 20  2  0  0  0  0
 19 21  2  0  0  0  0
 19 22  1  0  0  0  0
 22 23  2  0  0  0  0
 23 24  1  0  0  0  0
 24 25  1  0  0  0  0
 25 26  1  0  0  0  0
 25 27  2  0  0  0  0
 27 28  1  0  0  0  0
 28 29  2  0  0  0  0
 24 29  1  0  0  0  0
 29 30  1  0  0  0  0
 30 31  2  0  0  0  0
 22 31  1  0  0  0  0
M  END
> <ID>
CPD_2927

$$$$
CPD_2932
  Mrv1822 09091914012D          

 35 39  0  0  0  0            999 V2000
    8.5003    4.8229    0.0000 C   0  0  0  0  0  0  0  0  0  0  0  0
    8.5003    3.9979    0.0000 C   0  0  0  0  0  0  0  0  0  0  0  0
    7.7858    3.5854    0.0000 C   0  0  0  0  0  0  0  0  0  0  0  0
    7.7858    2.7604    0.0000 C   0  0  0  0  0  0  0  0  0  0  0  0
    7.0714    2.3479    0.0000 C   0  0  0  0  0  0  0  0  0  0  0  0
    6.3569    2.7604    0.0000 C   0  0  0  0  0  0  0  0  0  0  0  0
    6.3569    3.5854    0.0000 C   0  0  0  0  0  0  0  0  0  0  0  0
    7.0714    3.9979    0.0000 C   0  0  0  0  0  0  0  0  0  0  0  0
    5.6424    2.3479    0.0000 N   0  0  0  0  0  0  0  0  0  0  0  0
    5.6424    1.5229    0.0000 C   0  0  0  0  0  0  0  0  0  0  0  0
    6.3569    1.1104    0.0000 C   0  0  0  0  0  0  0  0  0  0  0  0
    6.3569    0.2854    0.0000 C   0  0  0  0  0  0  0  0  0  0  0  0
    7.0714   -0.1271    0.0000 C   0  0  0  0  0  0  0  0  0  0  0  0
    5.6424   -0.1271    0.0000 N   0  0  0  0  0  0  0  0  0  0  0  0
    4.9279    0.2854    0.0000 C   0  0  0  0  0  0  0  0  0  0  0  0
    4.2135   -0.1271    0.0000 C   0  0  0  0  0  0  0  0  0  0  0  0
    4.2135   -0.9521    0.0000 O   0  0  0  0  0  0  0  0  0  0  0  0
    4.9279   -1.3646    0.0000 C   0  0  0  0  0  0  0  0  0  0  0  0
    3.4990    0.2854    0.0000 C   0  0  0  0  0  0  0  0  0  0  0  0
    3.4990    1.1104    0.0000 C   0  0  0  0  0  0  0  0  0  0  0  0
    4.2135    1.5229    0.0000 C   0  0  0  0  0  0  0  0  0  0  0  0
    4.9279    1.1104    0.0000 C   0  0  0  0  0  0  0  0  0  0  0  0
    4.9279    2.7604    0.0000 S   0  0  0  0  0  0  0  0  0  0  0  0
    4.5154    2.0460    0.0000 O   0  0  0  0  0  0  0  0  0  0  0  0
    5.3404    3.4749    0.0000 O   0  0  0  0  0  0  0  0  0  0  0  0
    4.2135    3.1729    0.0000 C   0  0  0  0  0  0  0  0  0  0  0  0
    3.4990    2.7604    0.0000 C   0  0  0  0  0  0  0  0  0  0  0  0
    2.7845    3.1729    0.0000 N   0  0  0  0  0  0  0  0  0  0  0  0
    1.9999    2.9180    0.0000 C   0  0  0  0  0  0  0  0  0  0  0  0
    1.7450    2.1334    0.0000 C   0  0  0  0  0  0  0  0  0  0  0  0
    1.5150    3.5854    0.0000 N   0  0  0  0  0  0  0  0  0  0  0  0
    1.9999    4.2529    0.0000 N   0  0  0  0  0  0  0  0  0  0  0  0
    2.7845    3.9979    0.0000 C   0  0  0  0  0  0  0  0  0  0  0  0
    3.4990    4.4104    0.0000 C   0  0  0  0  0  0  0  0  0  0  0  0
    4.2135    3.9979    0.0000 C   0  0  0  0  0  0  0  0  0  0  0  0
  1  2  1  0  0  0  0
  2  3  1  0  0  0  0
  3  4  2  0  0  0  0
  4  5  1  0  0  0  0
  5  6  2  0  0  0  0
  6  7  1  0  0  0  0
  7  8  2  0  0  0  0
  3  8  1  0  0  0  0
  6  9  1  0  0  0  0
  9 10  1  0  0  0  0
 10 11  2  0  0  0  0
 11 12  1  0  0  0  0
 12 13  1  0  0  0  0
 12 14  2  0  0  0  0
 14 15  1  0  0  0  0
 15 16  2  0  0  0  0
 16 17  1  0  0  0  0
 17 18  1  0  0  0  0
 16 19  1  0  0  0  0
 19 20  2  0  0  0  0
 20 21  1  0  0  0  0
 21 22  2  0  0  0  0
 10 22  1  0  0  0  0
 15 22  1  0  0  0  0
  9 23  1  0  0  0  0
 23 24  2  0  0  0  0
 23 25  2  0  0  0  0
 23 26  1  0  0  0  0
 26 27  2  0  0  0  0
 27 28  1  0  0  0  0
 28 29  1  0  0  0  0
 29 30  1  0  0  0  0
 29 31  2  0  0  0  0
 31 32  1  0  0  0  0
 32 33  2  0  0  0  0
 28 33  1  0  0  0  0
 33 34  1  0  0  0  0
 34 35  2  0  0  0  0
 26 35  1  0  0  0  0
M  END
> <ID>
CPD_2932

$$$$
CPD_2937
  Mrv1822 09091914012D          

 33 36  0  0  0  0            999 V2000
    6.3569    2.7604    0.0000 C   0  0  0  0  0  0  0  0  0  0  0  0
    6.3569    1.9354    0.0000 C   0  0  0  0  0  0  0  0  0  0  0  0
    5.6424    1.5229    0.0000 C   0  0  0  0  0  0  0  0  0  0  0  0
    5.6424    0.6979    0.0000 C   0  0  0  0  0  0  0  0  0  0  0  0
    4.9279    0.2854    0.0000 C   0  0  0  0  0  0  0  0  0  0  0  0
    4.2135    0.6979    0.0000 C   0  0  0  0  0  0  0  0  0  0  0  0
    4.2135    1.5229    0.0000 C   0  0  0  0  0  0  0  0  0  0  0  0
    4.9279    1.9354    0.0000 C   0  0  0  0  0  0  0  0  0  0  0  0
    3.4990    0.2854    0.0000 N   0  0  0  0  0  0  0  0  0  0  0  0
    3.4990   -0.5396    0.0000 C   0  0  0  0  0  0  0  0  0  0  0  0
    4.2135   -0.9521    0.0000 C   0  0  0  0  0  0  0  0  0  0  0  0
    4.2135   -1.7771    0.0000 C   0  0  0  0  0  0  0  0  0  0  0  0
    3.4990   -2.1896    0.0000 C   0  0  0  0  0  0  0  0  0  0  0  0
    3.4990   -3.0146    0.0000 Br  0  0  0  0  0  0  0  0  0  0  0  0
    2.7845   -1.7771    0.0000 C   0  0  0  0  0  0  0  0  0  0  0  0
    2.7845   -0.9521    0.0000 C   0  0  0  0  0  0  0  0  0  0  0  0
    4.9279   -0.5396    0.0000 C   0  0  0  0  0  0  0  0  0  0  0  0
    5.4129    0.1279    0.0000 O   0  0  0  0  0  0  0  0  0  0  0  0
    5.6424   -0.9521    0.0000 O   0  0  0  0  0  0  0  0  0  0  0  0
    5.6424   -1.7771    0.0000 C   0  0  0  0  0  0  0  0  0  0  0  0
    2.7845    0.6979    0.0000 S   0  0  0  0  0  0  0  0  0  0  0  0
    3.1970    1.4124    0.0000 O   0  0  0  0  0  0  0  0  0  0  0  0
    2.3720   -0.0165    0.0000 O   0  0  0  0  0  0  0  0  0  0  0  0
    2.0701    1.1104    0.0000 C   0  0  0  0  0  0  0  0  0  0  0  0
    1.3556    0.6979    0.0000 C   0  0  0  0  0  0  0  0  0  0  0  0
    0.6411    1.1104    0.0000 N   0  0  0  0  0  0  0  0  0  0  0  0
   -0.1435    0.8555    0.0000 C   0  0  0  0  0  0  0  0  0  0  0  0
   -0.3984    0.0709    0.0000 C   0  0  0  0  0  0  0  0  0  0  0  0
   -0.6284    1.5229    0.0000 N   0  0  0  0  0  0  0  0  0  0  0  0
   -0.1435    2.1904    0.0000 N   0  0  0  0  0  0  0  0  0  0  0  0
    0.6411    1.9354    0.0000 C   0  0  0  0  0  0  0  0  0  0  0  0
    1.3556    2.3479    0.0000 C   0  0  0  0  0  0  0  0  0  0  0  0
    2.0701    1.9354    0.0000 C   0  0  0  0  0  0  0  0  0  0  0  0
  1  2  1  0  0  0  0
  2  3  1  0  0  0  0
  3  4  2  0  0  0  0
  4  5  1  0  0  0  0
  5  6  2  0  0  0  0
  6  7  1  0  0  0  0
  7  8  2  0  0  0  0
  3  8  1  0  0  0  0
  6  9  1  0  0  0  0
  9 10  1  0  0  0  0
 10 11  2  0  0  0  0
 11 12  1  0  0  0  0
 12 13  2  0  0  0  0
 13 14  1  0  0  0  0
 13 15  1  0  0  0  0
 15 16  2  0  0  0  0
 10 16  1  0  0  0  0
 11 17  1  0  0  0  0
 17 18  2  0  0  0  0
 17 19  1  0  0  0  0
 19 20  1  0  0  0  0
  9 21  1  0  0  0  0
 21 22  2  0  0  0  0
 21 23  2  0  0  0  0
 21 24  1  0  0  0  0
 24 25  2  0  0  0  0
 25 26  1  0  0  0  0
 26 27  1  0  0  0  0
 27 28  1  0  0  0  0
 27 29  2  0  0  0  0
 29 30  1  0  0  0  0
 30 31  2  0  0  0  0
 26 31  1  0  0  0  0
 31 32  1  0  0  0  0
 32 33  2  0  0  0  0
 24 33  1  0  0  0  0
M  END
> <ID>
CPD_2937

$$$$
CPD_2942
  Mrv1822 09091914012D          

 36 40  0  0  0  0            999 V2000
    6.3569    2.7604    0.0000 C   0  0  0  0  0  0  0  0  0  0  0  0
    6.3569    1.9354    0.0000 C   0  0  0  0  0  0  0  0  0  0  0  0
    5.6424    1.5229    0.0000 C   0  0  0  0  0  0  0  0  0  0  0  0
    5.6424    0.6979    0.0000 C   0  0  0  0  0  0  0  0  0  0  0  0
    4.9279    0.2854    0.0000 C   0  0  0  0  0  0  0  0  0  0  0  0
    4.2135    0.6979    0.0000 C   0  0  0  0  0  0  0  0  0  0  0  0
    4.2135    1.5229    0.0000 C   0  0  0  0  0  0  0  0  0  0  0  0
    4.9279    1.9354    0.0000 C   0  0  0  0  0  0  0  0  0  0  0  0
    3.4990    0.2854    0.0000 N   0  0  0  0  0  0  0  0  0  0  0  0
    3.4990   -0.5396    0.0000 C   0  0  0  0  0  0  0  0  0  0  0  0
    4.2135   -0.9521    0.0000 C   0  0  0  0  0  0  0  0  0  0  0  0
    4.9279   -0.5396    0.0000 O   0  0  0  0  0  0  0  0  0  0  0  0
    5.6424   -0.9521    0.0000 C   0  0  0  0  0  0  0  0  0  0  0  0
    5.6424   -1.7771    0.0000 C   0  0  0  0  0  0  0  0  0  0  0  0
    6.3098   -2.2620    0.0000 C   0  0  0  0  0  0  0  0  0  0  0  0
    6.0549   -3.0466    0.0000 C   0  0  0  0  0  0  0  0  0  0  0  0
    5.2299   -3.0466    0.0000 C   0  0  0  0  0  0  0  0  0  0  0  0
    4.9750   -2.2620    0.0000 O   0  0  0  0  0  0  0  0  0  0  0  0
    4.2135   -1.7771    0.0000 C   0  0  0  0  0  0  0  0  0  0  0  0
    3.4990   -2.1896    0.0000 C   0  0  0  0  0  0  0  0  0  0  0  0
    2.7845   -1.7771    0.0000 C   0  0  0  0  0  0  0  0  0  0  0  0
    2.0701   -2.1896    0.0000 N   0  0  0  0  0  0  0  0  0  0  0  0
    2.7845   -0.9521    0.0000 C   0  0  0  0  0  0  0  0  0  0  0  0
    2.7845    0.6979    0.0000 S   0  0  0  0  0  0  0  0  0  0  0  0
    2.3720   -0.0165    0.0000 O   0  0  0  0  0  0  0  0  0  0  0  0
    3.1970    1.4124    0.0000 O   0  0  0  0  0  0  0  0  0  0  0  0
    2.0701    1.1104    0.0000 C   0  0  0  0  0  0  0  0  0  0  0  0
    1.3556    0.6979    0.0000 C   0  0  0  0  0  0  0  0  0  0  0  0
    0.6411    1.1104    0.0000 N   0  0  0  0  0  0  0  0  0  0  0  0
   -0.1435    0.8555    0.0000 C   0  0  0  0  0  0  0  0  0  0  0  0
   -0.3984    0.0709    0.0000 C   0  0  0  0  0  0  0  0  0  0  0  0
   -0.6284    1.5229    0.0000 N   0  0  0  0  0  0  0  0  0  0  0  0
   -0.1435    2.1904    0.0000 N   0  0  0  0  0  0  0  0  0  0  0  0
    0.6411    1.9354    0.0000 C   0  0  0  0  0  0  0  0  0  0  0  0
    1.3556    2.3479    0.0000 C   0  0  0  0  0  0  0  0  0  0  0  0
    2.0701    1.9354    0.0000 C   0  0  0  0  0  0  0  0  0  0  0  0
  1  2  1  0  0  0  0
  2  3  1  0  0  0  0
  3  4  2  0  0  0  0
  4  5  1  0  0  0  0
  5  6  2  0  0  0  0
  6  7  1  0  0  0  0
  7  8  2  0  0  0  0
  3  8  1  0  0  0  0
  6  9  1  0  0  0  0
  9 10  1  0  0  0  0
 10 11  2  0  0  0  0
 11 12  1  0  0  0  0
 12 13  1  0  0  0  0
 13 14  1  0  0  0  0
 14 15  1  0  0  0  0
 15 16  1  0  0  0  0
 16 17  1  0  0  0  0
 17 18  1  0  0  0  0
 14 18  1  0  0  0  0
 11 19  1  0  0  0  0
 19 20  2  0  0  0  0
 20 21  1  0  0  0  0
 21 22  1  0  0  0  0
 21 23  2  0  0  0  0
 10 23  1  0  0  0  0
  9 24  1  0  0  0  0
 24 25  2  0  0  0  0
 24 26  2  0  0  0  0
 24 27  1  0  0  0  0
 27 28  2  0  0  0  0
 28 29  1  0  0  0  0
 29 30  1  0  0  0  0
 30 31  1  0  0  0  0
 30 32  2  0  0  0  0
 32 33  1  0  0  0  0
 33 34  2  0  0  0  0
 29 34  1  0  0  0  0
 34 35  1  0  0  0  0
 35 36  2  0  0  0  0
 27 36  1  0  0  0  0
M  END
> <ID>
CPD_2942

$$$$
CPD_2947
  Mrv1822 09091914012D          

 31 34  0  0  0  0            999 V2000
    6.3569    2.7604    0.0000 C   0  0  0  0  0  0  0  0  0  0  0  0
    6.3569    1.9354    0.0000 C   0  0  0  0  0  0  0  0  0  0  0  0
    5.6424    1.5229    0.0000 C   0  0  0  0  0  0  0  0  0  0  0  0
    5.6424    0.6979    0.0000 C   0  0  0  0  0  0  0  0  0  0  0  0
    4.9279    0.2854    0.0000 C   0  0  0  0  0  0  0  0  0  0  0  0
    4.2135    0.6979    0.0000 C   0  0  0  0  0  0  0  0  0  0  0  0
    4.2135    1.5229    0.0000 C   0  0  0  0  0  0  0  0  0  0  0  0
    4.9279    1.9354    0.0000 C   0  0  0  0  0  0  0  0  0  0  0  0
    3.4990    0.2854    0.0000 N   0  0  0  0  0  0  0  0  0  0  0  0
    3.4990   -0.5396    0.0000 C   0  0  0  0  0  0  0  0  0  0  0  0
    4.1664   -1.0245    0.0000 C   0  0  0  0  0  0  0  0  0  0  0  0
    3.9115   -1.8091    0.0000 N   0  0  0  0  0  0  0  0  0  0  0  0
    4.3964   -2.4765    0.0000 C   0  0  0  0  0  0  0  0  0  0  0  0
    3.0865   -1.8091    0.0000 N   0  0  0  0  0  0  0  0  0  0  0  0
    2.8316   -1.0245    0.0000 C   0  0  0  0  0  0  0  0  0  0  0  0
    2.0469   -0.7695    0.0000 C   0  0  0  0  0  0  0  0  0  0  0  0
    1.8754    0.0374    0.0000 O   0  0  0  0  0  0  0  0  0  0  0  0
    1.4338   -1.3216    0.0000 O   0  0  0  0  0  0  0  0  0  0  0  0
    0.6492   -1.0666    0.0000 C   0  0  0  0  0  0  0  0  0  0  0  0
    2.7845    0.6979    0.0000 S   0  0  0  0  0  0  0  0  0  0  0  0
    3.1970    1.4124    0.0000 O   0  0  0  0  0  0  0  0  0  0  0  0
    2.3720   -0.0165    0.0000 O   0  0  0  0  0  0  0  0  0  0  0  0
    2.0701    1.1104    0.0000 C   0  0  0  0  0  0  0  0  0  0  0  0
    1.3556    0.6979    0.0000 C   0  0  0  0  0  0  0  0  0  0  0  0
    0.6411    1.1104    0.0000 N   0  0  0  0  0  0  0  0  0  0  0  0
   -0.1435    0.8555    0.0000 C   0  0  0  0  0  0  0  0  0  0  0  0
   -0.6284    1.5229    0.0000 N   0  0  0  0  0  0  0  0  0  0  0  0
   -0.1435    2.1904    0.0000 N   0  0  0  0  0  0  0  0  0  0  0  0
    0.6411    1.9354    0.0000 C   0  0  0  0  0  0  0  0  0  0  0  0
    1.3556    2.3479    0.0000 C   0  0  0  0  0  0  0  0  0  0  0  0
    2.0701    1.9354    0.0000 C   0  0  0  0  0  0  0  0  0  0  0  0
  1  2  1  0  0  0  0
  2  3  1  0  0  0  0
  3  4  2  0  0  0  0
  4  5  1  0  0  0  0
  5  6  2  0  0  0  0
  6  7  1  0  0  0  0
  7  8  2  0  0  0  0
  3  8  1  0  0  0  0
  6  9  1  0  0  0  0
  9 10  1  0  0  0  0
 10 11  2  0  0  0  0
 11 12  1  0  0  0  0
 12 13  1  0  0  0  0
 12 14  1  0  0  0  0
 14 15  2  0  0  0  0
 10 15  1  0  0  0  0
 15 16  1  0  0  0  0
 16 17  2  0  0  0  0
 16 18  1  0  0  0  0
 18 19  1  0  0  0  0
  9 20  1  0  0  0  0
 20 21  2  0  0  0  0
 20 22  2  0  0  0  0
 20 23  1  0  0  0  0
 23 24  2  0  0  0  0
 24 25  1  0  0  0  0
 25 26  1  0  0  0  0
 26 27  2  0  0  0  0
 27 28  1  0  0  0  0
 28 29  2  0  0  0  0
 25 29  1  0  0  0  0
 29 30  1  0  0  0  0
 30 31  2  0  0  0  0
 23 31  1  0  0  0  0
M  END
> <ID>
CPD_2947

$$$$
CPD_2952
  Mrv1822 09091914012D          

 31 35  0  0  0  0            999 V2000
    9.7092   -2.4750    0.0000 C   0  0  0  0  0  0  0  0  0  0  0  0
    9.7092   -3.3000    0.0000 C   0  0  0  0  0  0  0  0  0  0  0  0
    8.9947   -3.7125    0.0000 C   0  0  0  0  0  0  0  0  0  0  0  0
    8.9947   -4.5375    0.0000 C   0  0  0  0  0  0  0  0  0  0  0  0
    8.2802   -4.9500    0.0000 C   0  0  0  0  0  0  0  0  0  0  0  0
    7.5658   -4.5375    0.0000 C   0  0  0  0  0  0  0  0  0  0  0  0
    7.5658   -3.7125    0.0000 C   0  0  0  0  0  0  0  0  0  0  0  0
    8.2802   -3.3000    0.0000 C   0  0  0  0  0  0  0  0  0  0  0  0
    6.8513   -4.9500    0.0000 N   0  0  0  0  0  0  0  0  0  0  0  0
    6.8513   -5.7750    0.0000 C   0  0  0  0  0  0  0  0  0  0  0  0
    6.1368   -6.1875    0.0000 N   0  0  0  0  0  0  0  0  0  0  0  0
    6.1368   -7.0125    0.0000 C   0  0  0  0  0  0  0  0  0  0  0  0
    6.8513   -7.4250    0.0000 C   0  0  0  0  0  0  0  0  0  0  0  0
    6.8513   -8.2500    0.0000 C   0  0  0  0  0  0  0  0  0  0  0  0
    6.1368   -8.6625    0.0000 C   0  0  0  0  0  0  0  0  0  0  0  0
    5.4223   -8.2500    0.0000 N   0  0  0  0  0  0  0  0  0  0  0  0
    5.4223   -7.4250    0.0000 C   0  0  0  0  0  0  0  0  0  0  0  0
    7.5658   -7.0125    0.0000 C   0  0  0  0  0  0  0  0  0  0  0  0
    7.5658   -6.1875    0.0000 C   0  0  0  0  0  0  0  0  0  0  0  0
    6.1368   -4.5375    0.0000 S   0  0  0  0  0  0  0  0  0  0  0  0
    5.7243   -5.2520    0.0000 O   0  0  0  0  0  0  0  0  0  0  0  0
    6.5493   -3.8230    0.0000 O   0  0  0  0  0  0  0  0  0  0  0  0
    5.4223   -4.1250    0.0000 C   0  0  0  0  0  0  0  0  0  0  0  0
    4.7079   -4.5375    0.0000 C   0  0  0  0  0  0  0  0  0  0  0  0
    3.9934   -4.1250    0.0000 N   0  0  0  0  0  0  0  0  0  0  0  0
    3.2088   -4.3799    0.0000 C   0  0  0  0  0  0  0  0  0  0  0  0
    2.7239   -3.7125    0.0000 N   0  0  0  0  0  0  0  0  0  0  0  0
    3.2088   -3.0451    0.0000 N   0  0  0  0  0  0  0  0  0  0  0  0
    3.9934   -3.3000    0.0000 C   0  0  0  0  0  0  0  0  0  0  0  0
    4.7079   -2.8875    0.0000 C   0  0  0  0  0  0  0  0  0  0  0  0
    5.4223   -3.3000    0.0000 C   0  0  0  0  0  0  0  0  0  0  0  0
  1  2  1  0  0  0  0
  2  3  1  0  0  0  0
  3  4  2  0  0  0  0
  4  5  1  0  0  0  0
  5  6  2  0  0  0  0
  6  7  1  0  0  0  0
  7  8  2  0  0  0  0
  3  8  1  0  0  0  0
  6  9  1  0  0  0  0
  9 10  1  0  0  0  0
 10 11  2  0  0  0  0
 11 12  1  0  0  0  0
 12 13  2  0  0  0  0
 13 14  1  0  0  0  0
 14 15  2  0  0  0  0
 15 16  1  0  0  0  0
 16 17  2  0  0  0  0
 12 17  1  0  0  0  0
 13 18  1  0  0  0  0
 18 19  2  0  0  0  0
 10 19  1  0  0  0  0
  9 20  1  0  0  0  0
 20 21  2  0  0  0  0
 20 22  2  0  0  0  0
 20 23  1  0  0  0  0
 23 24  2  0  0  0  0
 24 25  1  0  0  0  0
 25 26  1  0  0  0  0
 26 27  2  0  0  0  0
 27 28  1  0  0  0  0
 28 29  2  0  0  0  0
 25 29  1  0  0  0  0
 29 30  1  0  0  0  0
 30 31  2  0  0  0  0
 23 31  1  0  0  0  0
M  END
> <ID>
CPD_2952

$$$$
CPD_2957
  Mrv1822 09091914012D          

 31 34  0  0  0  0            999 V2000
    6.3569    2.7604    0.0000 C   0  0  0  0  0  0  0  0  0  0  0  0
    6.3569    1.9354    0.0000 C   0  0  0  0  0  0  0  0  0  0  0  0
    5.6424    1.5229    0.0000 C   0  0  0  0  0  0  0  0  0  0  0  0
    5.6424    0.6979    0.0000 C   0  0  0  0  0  0  0  0  0  0  0  0
    4.9279    0.2854    0.0000 C   0  0  0  0  0  0  0  0  0  0  0  0
    4.2135    0.6979    0.0000 C   0  0  0  0  0  0  0  0  0  0  0  0
    4.2135    1.5229    0.0000 C   0  0  0  0  0  0  0  0  0  0  0  0
    4.9279    1.9354    0.0000 C   0  0  0  0  0  0  0  0  0  0  0  0
    3.4990    0.2854    0.0000 N   0  0  0  0  0  0  0  0  0  0  0  0
    3.4990   -0.5396    0.0000 C   0  0  0  0  0  0  0  0  0  0  0  0
    4.2135   -0.9521    0.0000 C   0  0  0  0  0  0  0  0  0  0  0  0
    4.9279   -0.5396    0.0000 C   0  0  0  0  0  0  0  0  0  0  0  0
    5.6424   -0.9521    0.0000 C   0  0  0  0  0  0  0  0  0  0  0  0
    5.6424   -1.7771    0.0000 O   0  0  0  0  0  0  0  0  0  0  0  0
    4.2135   -1.7771    0.0000 C   0  0  0  0  0  0  0  0  0  0  0  0
    4.9279   -2.1896    0.0000 F   0  0  0  0  0  0  0  0  0  0  0  0
    3.4990   -2.1896    0.0000 C   0  0  0  0  0  0  0  0  0  0  0  0
    2.7845   -1.7771    0.0000 C   0  0  0  0  0  0  0  0  0  0  0  0
    2.7845   -0.9521    0.0000 C   0  0  0  0  0  0  0  0  0  0  0  0
    2.7845    0.6979    0.0000 S   0  0  0  0  0  0  0  0  0  0  0  0
    3.1970    1.4124    0.0000 O   0  0  0  0  0  0  0  0  0  0  0  0
    2.3720   -0.0165    0.0000 O   0  0  0  0  0  0  0  0  0  0  0  0
    2.0701    1.1104    0.0000 C   0  0  0  0  0  0  0  0  0  0  0  0
    1.3556    0.6979    0.0000 C   0  0  0  0  0  0  0  0  0  0  0  0
    0.6411    1.1104    0.0000 N   0  0  0  0  0  0  0  0  0  0  0  0
   -0.1435    0.8555    0.0000 C   0  0  0  0  0  0  0  0  0  0  0  0
   -0.6284    1.5229    0.0000 N   0  0  0  0  0  0  0  0  0  0  0  0
   -0.1435    2.1904    0.0000 N   0  0  0  0  0  0  0  0  0  0  0  0
    0.6411    1.9354    0.0000 C   0  0  0  0  0  0  0  0  0  0  0  0
    1.3556    2.3479    0.0000 C   0  0  0  0  0  0  0  0  0  0  0  0
    2.0701    1.9354    0.0000 C   0  0  0  0  0  0  0  0  0  0  0  0
  1  2  1  0  0  0  0
  2  3  1  0  0  0  0
  3  4  2  0  0  0  0
  4  5  1  0  0  0  0
  5  6  2  0  0  0  0
  6  7  1  0  0  0  0
  7  8  2  0  0  0  0
  3  8  1  0  0  0  0
  6  9  1  0  0  0  0
  9 10  1  0  0  0  0
 10 11  2  0  0  0  0
 11 12  1  0  0  0  0
 12 13  1  0  0  0  0
 13 14  1  0  0  0  0
 11 15  1  0  0  0  0
 15 16  1  0  0  0  0
 15 17  2  0  0  0  0
 17 18  1  0  0  0  0
 18 19  2  0  0  0  0
 10 19  1  0  0  0  0
  9 20  1  0  0  0  0
 20 21  2  0  0  0  0
 20 22  2  0  0  0  0
 20 23  1  0  0  0  0
 23 24  2  0  0  0  0
 24 25  1  0  0  0  0
 25 26  1  0  0  0  0
 26 27  2  0  0  0  0
 27 28  1  0  0  0  0
 28 29  2  0  0  0  0
 25 29  1  0  0  0  0
 29 30  1  0  0  0  0
 30 31  2  0  0  0  0
 23 31  1  0  0  0  0
M  END
> <ID>
CPD_2957

$$$$
CPD_2962
  Mrv1822 09091914012D          

 35 39  0  0  0  0            999 V2000
    2.2603    3.9349    0.0000 O   0  0  0  0  0  0  0  0  0  0  0  0
    2.8123    3.3218    0.0000 C   0  0  0  0  0  0  0  0  0  0  0  0
    2.5574    2.5372    0.0000 C   0  0  0  0  0  0  0  0  0  0  0  0
    3.1094    1.9241    0.0000 C   0  0  0  0  0  0  0  0  0  0  0  0
    3.9164    2.0957    0.0000 C   0  0  0  0  0  0  0  0  0  0  0  0
    4.1713    2.8803    0.0000 C   0  0  0  0  0  0  0  0  0  0  0  0
    3.6193    3.4934    0.0000 C   0  0  0  0  0  0  0  0  0  0  0  0
    3.8742    4.2780    0.0000 C   0  0  0  0  0  0  0  0  0  0  0  0
    4.1292    5.0626    0.0000 N   0  0  0  0  0  0  0  0  0  0  0  0
    4.4684    1.4826    0.0000 C   0  0  0  0  0  0  0  0  0  0  0  0
    5.2754    1.6541    0.0000 C   0  0  0  0  0  0  0  0  0  0  0  0
    5.8274    1.0410    0.0000 C   0  0  0  0  0  0  0  0  0  0  0  0
    5.5725    0.2564    0.0000 C   0  0  0  0  0  0  0  0  0  0  0  0
    4.7655    0.0848    0.0000 C   0  0  0  0  0  0  0  0  0  0  0  0
    4.2135    0.6979    0.0000 C   0  0  0  0  0  0  0  0  0  0  0  0
    3.4990    0.2854    0.0000 N   0  0  0  0  0  0  0  0  0  0  0  0
    3.4990   -0.5396    0.0000 C   0  0  0  0  0  0  0  0  0  0  0  0
    4.2135   -0.9521    0.0000 C   0  0  0  0  0  0  0  0  0  0  0  0
    4.2135   -1.7771    0.0000 C   0  0  0  0  0  0  0  0  0  0  0  0
    4.9279   -2.1896    0.0000 F   0  0  0  0  0  0  0  0  0  0  0  0
    3.4990   -2.1896    0.0000 C   0  0  0  0  0  0  0  0  0  0  0  0
    2.7845   -1.7771    0.0000 C   0  0  0  0  0  0  0  0  0  0  0  0
    2.7845   -0.9521    0.0000 C   0  0  0  0  0  0  0  0  0  0  0  0
    2.7845    0.6979    0.0000 S   0  0  0  0  0  0  0  0  0  0  0  0
    3.1970    1.4124    0.0000 O   0  0  0  0  0  0  0  0  0  0  0  0
    2.3720   -0.0165    0.0000 O   0  0  0  0  0  0  0  0  0  0  0  0
    2.0701    1.1104    0.0000 C   0  0  0  0  0  0  0  0  0  0  0  0
    1.3556    0.6979    0.0000 C   0  0  0  0  0  0  0  0  0  0  0  0
    0.6411    1.1104    0.0000 N   0  0  0  0  0  0  0  0  0  0  0  0
   -0.1435    0.8555    0.0000 C   0  0  0  0  0  0  0  0  0  0  0  0
   -0.6284    1.5229    0.0000 N   0  0  0  0  0  0  0  0  0  0  0  0
   -0.1435    2.1904    0.0000 N   0  0  0  0  0  0  0  0  0  0  0  0
    0.6411    1.9354    0.0000 C   0  0  0  0  0  0  0  0  0  0  0  0
    1.3556    2.3479    0.0000 C   0  0  0  0  0  0  0  0  0  0  0  0
    2.0701    1.9354    0.0000 C   0  0  0  0  0  0  0  0  0  0  0  0
  1  2  1  0  0  0  0
  2  3  2  0  0  0  0
  3  4  1  0  0  0  0
  4  5  2  0  0  0  0
  5  6  1  0  0  0  0
  6  7  2  0  0  0  0
  2  7  1  0  0  0  0
  7  8  1  0  0  0  0
  8  9  3  0  0  0  0
  5 10  1  0  0  0  0
 10 11  2  0  0  0  0
 11 12  1  0  0  0  0
 12 13  2  0  0  0  0
 13 14  1  0  0  0  0
 14 15  2  0  0  0  0
 10 15  1  0  0  0  0
 15 16  1  0  0  0  0
 16 17  1  0  0  0  0
 17 18  2  0  0  0  0
 18 19  1  0  0  0  0
 19 20  1  0  0  0  0
 19 21  2  0  0  0  0
 21 22  1  0  0  0  0
 22 23  2  0  0  0  0
 17 23  1  0  0  0  0
 16 24  1  0  0  0  0
 24 25  2  0  0  0  0
 24 26  2  0  0  0  0
 24 27  1  0  0  0  0
 27 28  2  0  0  0  0
 28 29  1  0  0  0  0
 29 30  1  0  0  0  0
 30 31  2  0  0  0  0
 31 32  1  0  0  0  0
 32 33  2  0  0  0  0
 29 33  1  0  0  0  0
 33 34  1  0  0  0  0
 34 35  2  0  0  0  0
 27 35  1  0  0  0  0
M  END
> <ID>
CPD_2962

$$$$
CPD_2967
  Mrv1822 09091914012D          

 32 36  0  0  0  0            999 V2000
    0.0000   -1.6500    0.0000 C   0  0  0  0  0  0  0  0  0  0  0  0
    0.7145   -1.2375    0.0000 C   0  0  0  0  0  0  0  0  0  0  0  0
    0.7145   -0.4125    0.0000 C   0  0  0  0  0  0  0  0  0  0  0  0
    1.4289    0.0000    0.0000 C   0  0  0  0  0  0  0  0  0  0  0  0
    1.4289    0.8250    0.0000 Cl  0  0  0  0  0  0  0  0  0  0  0  0
    2.1434   -0.4125    0.0000 C   0  0  0  0  0  0  0  0  0  0  0  0
    2.8579    0.0000    0.0000 C   0  0  0  0  0  0  0  0  0  0  0  0
    3.5724   -0.4125    0.0000 C   0  0  0  0  0  0  0  0  0  0  0  0
    3.5724   -1.2375    0.0000 C   0  0  0  0  0  0  0  0  0  0  0  0
    2.8579   -1.6500    0.0000 C   0  0  0  0  0  0  0  0  0  0  0  0
    2.8579   -2.4750    0.0000 N   0  0  0  0  0  0  0  0  0  0  0  0
    3.5724   -2.8875    0.0000 C   0  0  0  0  0  0  0  0  0  0  0  0
    4.2868   -2.4750    0.0000 C   0  0  0  0  0  0  0  0  0  0  0  0
    5.0013   -2.8875    0.0000 C   0  0  0  0  0  0  0  0  0  0  0  0
    5.7158   -2.4750    0.0000 F   0  0  0  0  0  0  0  0  0  0  0  0
    5.0013   -3.7125    0.0000 C   0  0  0  0  0  0  0  0  0  0  0  0
    4.2868   -4.1250    0.0000 C   0  0  0  0  0  0  0  0  0  0  0  0
    3.5724   -3.7125    0.0000 C   0  0  0  0  0  0  0  0  0  0  0  0
    2.1434   -2.8875    0.0000 S   0  0  0  0  0  0  0  0  0  0  0  0
    1.7309   -2.1730    0.0000 O   0  0  0  0  0  0  0  0  0  0  0  0
    2.5559   -3.6020    0.0000 O   0  0  0  0  0  0  0  0  0  0  0  0
    1.4289   -3.3000    0.0000 C   0  0  0  0  0  0  0  0  0  0  0  0
    1.4289   -4.1250    0.0000 C   0  0  0  0  0  0  0  0  0  0  0  0
    0.7145   -4.5375    0.0000 N   0  0  0  0  0  0  0  0  0  0  0  0
    0.5429   -5.3445    0.0000 C   0  0  0  0  0  0  0  0  0  0  0  0
   -0.2775   -5.4307    0.0000 N   0  0  0  0  0  0  0  0  0  0  0  0
   -0.6131   -4.6770    0.0000 N   0  0  0  0  0  0  0  0  0  0  0  0
    0.0000   -4.1250    0.0000 C   0  0  0  0  0  0  0  0  0  0  0  0
    0.0000   -3.3000    0.0000 C   0  0  0  0  0  0  0  0  0  0  0  0
    0.7145   -2.8875    0.0000 C   0  0  0  0  0  0  0  0  0  0  0  0
    2.1434   -1.2375    0.0000 C   0  0  0  0  0  0  0  0  0  0  0  0
    1.4289   -1.6500    0.0000 N   0  0  0  0  0  0  0  0  0  0  0  0
  1  2  1  0  0  0  0
  2  3  2  0  0  0  0
  3  4  1  0  0  0  0
  4  5  1  0  0  0  0
  4  6  2  0  0  0  0
  6  7  1  0  0  0  0
  7  8  2  0  0  0  0
  8  9  1  0  0  0  0
  9 10  2  0  0  0  0
 10 11  1  0  0  0  0
 11 12  1  0  0  0  0
 12 13  2  0  0  0  0
 13 14  1  0  0  0  0
 14 15  1  0  0  0  0
 14 16  2  0  0  0  0
 16 17  1  0  0  0  0
 17 18  2  0  0  0  0
 12 18  1  0  0  0  0
 11 19  1  0  0  0  0
 19 20  2  0  0  0  0
 19 21  2  0  0  0  0
 19 22  1  0  0  0  0
 22 23  2  0  0  0  0
 23 24  1  0  0  0  0
 24 25  1  0  0  0  0
 25 26  2  0  0  0  0
 26 27  1  0  0  0  0
 27 28  2  0  0  0  0
 24 28  1  0  0  0  0
 28 29  1  0  0  0  0
 29 30  2  0  0  0  0
 22 30  1  0  0  0  0
 10 31  1  0  0  0  0
  6 31  1  0  0  0  0
 31 32  2  0  0  0  0
  2 32  1  0  0  0  0
M  END
> <ID>
CPD_2967

$$$$
CPD_2972
  Mrv1822 09091914012D          

 34 37  0  0  0  0            999 V2000
    6.8513    5.7750    0.0000 C   0  0  0  0  0  0  0  0  0  0  0  0
    6.1368    5.3625    0.0000 C   0  0  0  0  0  0  0  0  0  0  0  0
    6.1368    4.5375    0.0000 N   0  0  0  0  0  0  0  0  0  0  0  0
    6.8513    4.1250    0.0000 C   0  0  0  0  0  0  0  0  0  0  0  0
    6.8513    3.3000    0.0000 C   0  0  0  0  0  0  0  0  0  0  0  0
    5.4223    4.1250    0.0000 C   0  0  0  0  0  0  0  0  0  0  0  0
    5.4223    3.3000    0.0000 C   0  0  0  0  0  0  0  0  0  0  0  0
    4.7079    2.8875    0.0000 C   0  0  0  0  0  0  0  0  0  0  0  0
    3.9934    3.3000    0.0000 C   0  0  0  0  0  0  0  0  0  0  0  0
    3.9934    4.1250    0.0000 C   0  0  0  0  0  0  0  0  0  0  0  0
    4.7079    4.5375    0.0000 C   0  0  0  0  0  0  0  0  0  0  0  0
    3.2789    2.8875    0.0000 N   0  0  0  0  0  0  0  0  0  0  0  0
    2.5645    3.3000    0.0000 C   0  0  0  0  0  0  0  0  0  0  0  0
    1.8500    2.8875    0.0000 C   0  0  0  0  0  0  0  0  0  0  0  0
    1.1355    3.3000    0.0000 C   0  0  0  0  0  0  0  0  0  0  0  0
    0.4210    2.8875    0.0000 F   0  0  0  0  0  0  0  0  0  0  0  0
    1.1355    4.1250    0.0000 C   0  0  0  0  0  0  0  0  0  0  0  0
    1.8500    4.5375    0.0000 C   0  0  0  0  0  0  0  0  0  0  0  0
    1.8500    5.3625    0.0000 F   0  0  0  0  0  0  0  0  0  0  0  0
    2.5645    4.1250    0.0000 C   0  0  0  0  0  0  0  0  0  0  0  0
    3.2789    2.0625    0.0000 S   0  0  0  0  0  0  0  0  0  0  0  0
    2.4539    2.0625    0.0000 O   0  0  0  0  0  0  0  0  0  0  0  0
    4.1039    2.0625    0.0000 O   0  0  0  0  0  0  0  0  0  0  0  0
    3.2789    1.2375    0.0000 C   0  0  0  0  0  0  0  0  0  0  0  0
    3.9934    0.8250    0.0000 C   0  0  0  0  0  0  0  0  0  0  0  0
    3.9934    0.0000    0.0000 C   0  0  0  0  0  0  0  0  0  0  0  0
    3.2789   -0.4125    0.0000 C   0  0  0  0  0  0  0  0  0  0  0  0
    2.5645    0.0000    0.0000 N   0  0  0  0  0  0  0  0  0  0  0  0
    1.7798   -0.2549    0.0000 C   0  0  0  0  0  0  0  0  0  0  0  0
    1.5249   -1.0396    0.0000 C   0  0  0  0  0  0  0  0  0  0  0  0
    2.0769   -1.6527    0.0000 C   0  0  0  0  0  0  0  0  0  0  0  0
    1.2949    0.4125    0.0000 N   0  0  0  0  0  0  0  0  0  0  0  0
    1.7798    1.0799    0.0000 N   0  0  0  0  0  0  0  0  0  0  0  0
    2.5645    0.8250    0.0000 C   0  0  0  0  0  0  0  0  0  0  0  0
  1  2  1  0  0  0  0
  2  3  1  0  0  0  0
  3  4  1  0  0  0  0
  4  5  1  0  0  0  0
  3  6  1  0  0  0  0
  6  7  2  0  0  0  0
  7  8  1  0  0  0  0
  8  9  2  0  0  0  0
  9 10  1  0  0  0  0
 10 11  2  0  0  0  0
  6 11  1  0  0  0  0
  9 12  1  0  0  0  0
 12 13  1  0  0  0  0
 13 14  2  0  0  0  0
 14 15  1  0  0  0  0
 15 16  1  0  0  0  0
 15 17  2  0  0  0  0
 17 18  1  0  0  0  0
 18 19  1  0  0  0  0
 18 20  2  0  0  0  0
 13 20  1  0  0  0  0
 12 21  1  0  0  0  0
 21 22  2  0  0  0  0
 21 23  2  0  0  0  0
 21 24  1  0  0  0  0
 24 25  2  0  0  0  0
 25 26  1  0  0  0  0
 26 27  2  0  0  0  0
 27 28  1  0  0  0  0
 28 29  1  0  0  0  0
 29 30  1  0  0  0  0
 30 31  1  0  0  0  0
 29 32  2  0  0  0  0
 32 33  1  0  0  0  0
 33 34  2  0  0  0  0
 24 34  1  0  0  0  0
 28 34  1  0  0  0  0
M  END
> <ID>
CPD_2972

$$$$
CPD_2977
  Mrv1822 09091914012D          

 31 34  0  0  0  0            999 V2000
   -1.2054    0.9256    0.0000 C   0  0  0  0  0  0  0  0  0  0  0  0
   -0.3984    0.7541    0.0000 C   0  0  0  0  0  0  0  0  0  0  0  0
   -0.1435   -0.0305    0.0000 C   0  0  0  0  0  0  0  0  0  0  0  0
   -0.6284   -0.6979    0.0000 N   0  0  0  0  0  0  0  0  0  0  0  0
   -0.1435   -1.3654    0.0000 N   0  0  0  0  0  0  0  0  0  0  0  0
    0.6411   -1.1104    0.0000 C   0  0  0  0  0  0  0  0  0  0  0  0
    0.6411   -0.2854    0.0000 N   0  0  0  0  0  0  0  0  0  0  0  0
    1.3556    0.1271    0.0000 C   0  0  0  0  0  0  0  0  0  0  0  0
    2.0701   -0.2854    0.0000 C   0  0  0  0  0  0  0  0  0  0  0  0
    2.0701   -1.1104    0.0000 C   0  0  0  0  0  0  0  0  0  0  0  0
    1.3556   -1.5229    0.0000 C   0  0  0  0  0  0  0  0  0  0  0  0
    1.3556   -2.3479    0.0000 S   0  0  0  0  0  0  0  0  0  0  0  0
    0.5306   -2.3479    0.0000 O   0  0  0  0  0  0  0  0  0  0  0  0
    2.1806   -2.3479    0.0000 O   0  0  0  0  0  0  0  0  0  0  0  0
    1.3556   -3.1729    0.0000 N   0  0  0  0  0  0  0  0  0  0  0  0
    0.6411   -3.5854    0.0000 C   0  0  0  0  0  0  0  0  0  0  0  0
    0.6411   -4.4104    0.0000 C   0  0  0  0  0  0  0  0  0  0  0  0
   -0.0734   -4.8229    0.0000 C   0  0  0  0  0  0  0  0  0  0  0  0
   -0.0734   -5.6479    0.0000 C   0  0  0  0  0  0  0  0  0  0  0  0
   -0.7878   -4.4104    0.0000 C   0  0  0  0  0  0  0  0  0  0  0  0
   -1.5023   -4.8229    0.0000 N   0  0  0  0  0  0  0  0  0  0  0  0
   -0.7878   -3.5854    0.0000 C   0  0  0  0  0  0  0  0  0  0  0  0
   -0.0734   -3.1729    0.0000 C   0  0  0  0  0  0  0  0  0  0  0  0
    2.0701   -3.5854    0.0000 C   0  0  0  0  0  0  0  0  0  0  0  0
    2.7845   -3.1729    0.0000 C   0  0  0  0  0  0  0  0  0  0  0  0
    3.4990   -3.5854    0.0000 C   0  0  0  0  0  0  0  0  0  0  0  0
    4.2135   -3.1729    0.0000 F   0  0  0  0  0  0  0  0  0  0  0  0
    3.4990   -4.4104    0.0000 C   0  0  0  0  0  0  0  0  0  0  0  0
    2.7845   -4.8229    0.0000 C   0  0  0  0  0  0  0  0  0  0  0  0
    2.7845   -5.6479    0.0000 F   0  0  0  0  0  0  0  0  0  0  0  0
    2.0701   -4.4104    0.0000 C   0  0  0  0  0  0  0  0  0  0  0  0
  1  2  1  0  0  0  0
  2  3  1  0  0  0  0
  3  4  2  0  0  0  0
  4  5  1  0  0  0  0
  5  6  2  0  0  0  0
  6  7  1  0  0  0  0
  3  7  1  0  0  0  0
  7  8  1  0  0  0  0
  8  9  2  0  0  0  0
  9 10  1  0  0  0  0
 10 11  2  0  0  0  0
  6 11  1  0  0  0  0
 11 12  1  0  0  0  0
 12 13  2  0  0  0  0
 12 14  2  0  0  0  0
 12 15  1  0  0  0  0
 15 16  1  0  0  0  0
 16 17  2  0  0  0  0
 17 18  1  0  0  0  0
 18 19  1  0  0  0  0
 18 20  2  0  0  0  0
 20 21  1  0  0  0  0
 20 22  1  0  0  0  0
 22 23  2  0  0  0  0
 16 23  1  0  0  0  0
 15 24  1  0  0  0  0
 24 25  2  0  0  0  0
 25 26  1  0  0  0  0
 26 27  1  0  0  0  0
 26 28  2  0  0  0  0
 28 29  1  0  0  0  0
 29 30  1  0  0  0  0
 29 31  2  0  0  0  0
 24 31  1  0  0  0  0
M  END
> <ID>
CPD_2977

$$$$
CPD_2982
  Mrv1822 09091914012D          

 37 41  0  0  0  0            999 V2000
    8.5003    3.1729    0.0000 N   0  0  0  0  0  0  0  0  0  0  0  0
    7.7858    2.7604    0.0000 C   0  0  0  0  0  0  0  0  0  0  0  0
    7.0714    3.1729    0.0000 C   0  0  0  0  0  0  0  0  0  0  0  0
    6.3569    2.7604    0.0000 C   0  0  0  0  0  0  0  0  0  0  0  0
    6.3569    1.9354    0.0000 C   0  0  0  0  0  0  0  0  0  0  0  0
    7.0714    1.5229    0.0000 C   0  0  0  0  0  0  0  0  0  0  0  0
    7.7858    1.9354    0.0000 N   0  0  0  0  0  0  0  0  0  0  0  0
    5.6424    1.5229    0.0000 C   0  0  0  0  0  0  0  0  0  0  0  0
    5.6424    0.6979    0.0000 C   0  0  0  0  0  0  0  0  0  0  0  0
    4.9279    0.2854    0.0000 C   0  0  0  0  0  0  0  0  0  0  0  0
    4.2135    0.6979    0.0000 C   0  0  0  0  0  0  0  0  0  0  0  0
    4.2135    1.5229    0.0000 C   0  0  0  0  0  0  0  0  0  0  0  0
    4.9279    1.9354    0.0000 C   0  0  0  0  0  0  0  0  0  0  0  0
    3.4990    0.2854    0.0000 N   0  0  0  0  0  0  0  0  0  0  0  0
    3.4990   -0.5396    0.0000 C   0  0  0  0  0  0  0  0  0  0  0  0
    4.2135   -0.9521    0.0000 C   0  0  0  0  0  0  0  0  0  0  0  0
    4.2135   -1.7771    0.0000 C   0  0  0  0  0  0  0  0  0  0  0  0
    4.9279   -2.1896    0.0000 Cl  0  0  0  0  0  0  0  0  0  0  0  0
    3.4990   -2.1896    0.0000 C   0  0  0  0  0  0  0  0  0  0  0  0
    2.7845   -1.7771    0.0000 C   0  0  0  0  0  0  0  0  0  0  0  0
    2.7845   -0.9521    0.0000 C   0  0  0  0  0  0  0  0  0  0  0  0
    2.7845    0.6979    0.0000 S   0  0  0  0  0  0  0  0  0  0  0  0
    3.1970    1.4124    0.0000 O   0  0  0  0  0  0  0  0  0  0  0  0
    2.3720   -0.0165    0.0000 O   0  0  0  0  0  0  0  0  0  0  0  0
    2.0701    1.1104    0.0000 C   0  0  0  0  0  0  0  0  0  0  0  0
    1.3556    0.6979    0.0000 C   0  0  0  0  0  0  0  0  0  0  0  0
    0.6411    1.1104    0.0000 N   0  0  0  0  0  0  0  0  0  0  0  0
   -0.1435    0.8555    0.0000 C   0  0  0  0  0  0  0  0  0  0  0  0
   -0.6284    1.5229    0.0000 N   0  0  0  0  0  0  0  0  0  0  0  0
   -0.1435    2.1904    0.0000 N   0  0  0  0  0  0  0  0  0  0  0  0
    0.6411    1.9354    0.0000 C   0  0  0  0  0  0  0  0  0  0  0  0
    1.3556    2.3479    0.0000 C   0  0  0  0  0  0  0  0  0  0  0  0
    2.0701    1.9354    0.0000 C   0  0  0  0  0  0  0  0  0  0  0  0
    4.9279   -0.5396    0.0000 C   0  0  0  0  0  0  0  0  0  0  0  0
    4.9279   -1.3646    0.0000 F   0  0  0  0  0  0  0  0  0  0  0  0
    4.1029   -0.5396    0.0000 F   0  0  0  0  0  0  0  0  0  0  0  0
    5.7529   -0.5396    0.0000 F   0  0  0  0  0  0  0  0  0  0  0  0
  1  2  1  0  0  0  0
  2  3  2  0  0  0  0
  3  4  1  0  0  0  0
  4  5  2  0  0  0  0
  5  6  1  0  0  0  0
  6  7  2  0  0  0  0
  2  7  1  0  0  0  0
  5  8  1  0  0  0  0
  8  9  2  0  0  0  0
  9 10  1  0  0  0  0
 10 11  2  0  0  0  0
 11 12  1  0  0  0  0
 12 13  2  0  0  0  0
  8 13  1  0  0  0  0
 11 14  1  0  0  0  0
 14 15  1  0  0  0  0
 15 16  2  0  0  0  0
 16 17  1  0  0  0  0
 17 18  1  0  0  0  0
 17 19  2  0  0  0  0
 19 20  1  0  0  0  0
 20 21  2  0  0  0  0
 15 21  1  0  0  0  0
 14 22  1  0  0  0  0
 22 23  2  0  0  0  0
 22 24  2  0  0  0  0
 22 25  1  0  0  0  0
 25 26  2  0  0  0  0
 26 27  1  0  0  0  0
 27 28  1  0  0  0  0
 28 29  2  0  0  0  0
 29 30  1  0  0  0  0
 30 31  2  0  0  0  0
 27 31  1  0  0  0  0
 31 32  1  0  0  0  0
 32 33  2  0  0  0  0
 25 33  1  0  0  0  0
 10 34  1  0  0  0  0
 34 35  1  0  0  0  0
 34 36  1  0  0  0  0
 34 37  1  0  0  0  0
M  END
> <ID>
CPD_2982

$$$$
CPD_2987
  Mrv1822 09091914012D          

 24 26  0  0  0  0            999 V2000
   -1.4593   -2.3991    0.0000 C   0  0  0  0  0  0  0  0  0  0  0  0
   -1.4593   -3.2241    0.0000 O   0  0  0  0  0  0  0  0  0  0  0  0
   -0.7448   -3.6366    0.0000 C   0  0  0  0  0  0  0  0  0  0  0  0
   -0.0303   -3.2241    0.0000 O   0  0  0  0  0  0  0  0  0  0  0  0
   -0.7448   -4.4616    0.0000 C   0  0  0  0  0  0  0  0  0  0  0  0
   -0.0774   -4.9465    0.0000 C   0  0  0  0  0  0  0  0  0  0  0  0
    0.7072   -4.6916    0.0000 Br  0  0  0  0  0  0  0  0  0  0  0  0
   -0.3323   -5.7311    0.0000 C   0  0  0  0  0  0  0  0  0  0  0  0
    0.1526   -6.3986    0.0000 N   0  0  0  0  0  0  0  0  0  0  0  0
    0.9731   -6.3123    0.0000 C   0  0  0  0  0  0  0  0  0  0  0  0
    1.4580   -6.9798    0.0000 C   0  0  0  0  0  0  0  0  0  0  0  0
    2.2830   -6.9798    0.0000 N   0  0  0  0  0  0  0  0  0  0  0  0
    2.5379   -7.7644    0.0000 C   0  0  0  0  0  0  0  0  0  0  0  0
    1.8705   -8.2493    0.0000 C   0  0  0  0  0  0  0  0  0  0  0  0
    1.2031   -7.7644    0.0000 S   0  0  0  0  0  0  0  0  0  0  0  0
    3.3226   -8.0193    0.0000 C   0  0  0  0  0  0  0  0  0  0  0  0
    3.9357   -7.4673    0.0000 C   0  0  0  0  0  0  0  0  0  0  0  0
    4.7203   -7.7222    0.0000 C   0  0  0  0  0  0  0  0  0  0  0  0
    4.8918   -8.5292    0.0000 C   0  0  0  0  0  0  0  0  0  0  0  0
    4.2787   -9.0812    0.0000 C   0  0  0  0  0  0  0  0  0  0  0  0
    4.4502   -9.8882    0.0000 Cl  0  0  0  0  0  0  0  0  0  0  0  0
    3.4941   -8.8263    0.0000 C   0  0  0  0  0  0  0  0  0  0  0  0
   -1.1573   -5.7311    0.0000 C   0  0  0  0  0  0  0  0  0  0  0  0
   -1.4123   -4.9465    0.0000 S   0  0  0  0  0  0  0  0  0  0  0  0
  1  2  1  0  0  0  0
  2  3  1  0  0  0  0
  3  4  2  0  0  0  0
  3  5  1  0  0  0  0
  5  6  2  0  0  0  0
  6  7  1  0  0  0  0
  6  8  1  0  0  0  0
  8  9  1  0  0  0  0
  9 10  1  0  0  0  0
 10 11  1  0  0  0  0
 11 12  2  0  0  0  0
 12 13  1  0  0  0  0
 13 14  2  0  0  0  0
 14 15  1  0  0  0  0
 11 15  1  0  0  0  0
 13 16  1  0  0  0  0
 16 17  2  0  0  0  0
 17 18  1  0  0  0  0
 18 19  2  0  0  0  0
 19 20  1  0  0  0  0
 20 21  1  0  0  0  0
 20 22  2  0  0  0  0
 16 22  1  0  0  0  0
  8 23  2  0  0  0  0
 23 24  1  0  0  0  0
  5 24  1  0  0  0  0
M  END
> <ID>
CPD_2987

$$$$
CPD_2992
  Mrv1822 09091914012D          

 26 29  0  0  0  0            999 V2000
   -6.4628    7.3125    0.0000 Cl  0  0  0  0  0  0  0  0  0  0  0  0
   -6.1011    6.5710    0.0000 C   0  0  0  0  0  0  0  0  0  0  0  0
   -5.2782    6.5134    0.0000 C   0  0  0  0  0  0  0  0  0  0  0  0
   -4.9165    5.7719    0.0000 C   0  0  0  0  0  0  0  0  0  0  0  0
   -5.3778    5.0880    0.0000 C   0  0  0  0  0  0  0  0  0  0  0  0
   -6.2008    5.1455    0.0000 C   0  0  0  0  0  0  0  0  0  0  0  0
   -6.5625    5.8870    0.0000 C   0  0  0  0  0  0  0  0  0  0  0  0
   -4.0935    5.7144    0.0000 C   0  0  0  0  0  0  0  0  0  0  0  0
   -3.5632    6.3464    0.0000 C   0  0  0  0  0  0  0  0  0  0  0  0
   -2.7983    6.0373    0.0000 S   0  0  0  0  0  0  0  0  0  0  0  0
   -2.8558    5.2143    0.0000 C   0  0  0  0  0  0  0  0  0  0  0  0
   -2.2238    4.6840    0.0000 C   0  0  0  0  0  0  0  0  0  0  0  0
   -1.4486    4.9662    0.0000 N   0  0  0  0  0  0  0  0  0  0  0  0
   -0.8166    4.4359    0.0000 C   0  0  0  0  0  0  0  0  0  0  0  0
   -0.0414    4.7180    0.0000 C   0  0  0  0  0  0  0  0  0  0  0  0
    0.5906    4.1877    0.0000 C   0  0  0  0  0  0  0  0  0  0  0  0
    0.4474    3.3753    0.0000 C   0  0  0  0  0  0  0  0  0  0  0  0
   -0.3279    3.0931    0.0000 C   0  0  0  0  0  0  0  0  0  0  0  0
   -0.9599    3.6234    0.0000 C   0  0  0  0  0  0  0  0  0  0  0  0
   -1.7351    3.3412    0.0000 Cl  0  0  0  0  0  0  0  0  0  0  0  0
    1.0793    2.8450    0.0000 C   0  0  0  0  0  0  0  0  0  0  0  0
    1.4918    2.1305    0.0000 C   0  0  0  0  0  0  0  0  0  0  0  0
    0.6668    2.1305    0.0000 C   0  0  0  0  0  0  0  0  0  0  0  0
    1.7113    3.3753    0.0000 C   0  0  0  0  0  0  0  0  0  0  0  0
    2.3433    3.9056    0.0000 N   0  0  0  0  0  0  0  0  0  0  0  0
   -3.6563    5.0147    0.0000 N   0  0  0  0  0  0  0  0  0  0  0  0
  1  2  1  0  0  0  0
  2  3  2  0  0  0  0
  3  4  1  0  0  0  0
  4  5  2  0  0  0  0
  5  6  1  0  0  0  0
  6  7  2  0  0  0  0
  2  7  1  0  0  0  0
  4  8  1  0  0  0  0
  8  9  2  0  0  0  0
  9 10  1  0  0  0  0
 10 11  1  0  0  0  0
 11 12  1  0  0  0  0
 12 13  1  0  0  0  0
 13 14  1  0  0  0  0
 14 15  2  0  0  0  0
 15 16  1  0  0  0  0
 16 17  2  0  0  0  0
 17 18  1  0  0  0  0
 18 19  2  0  0  0  0
 14 19  1  0  0  0  0
 19 20  1  0  0  0  0
 17 21  1  0  0  0  0
 21 22  1  0  0  0  0
 22 23  1  0  0  0  0
 21 23  1  0  0  0  0
 21 24  1  0  0  0  0
 24 25  3  0  0  0  0
 11 26  2  0  0  0  0
  8 26  1  0  0  0  0
M  END
> <ID>
CPD_2992

$$$$
CPD_2997
  Mrv1822 09091914012D          

 24 27  0  0  0  0            999 V2000
    3.2789    2.0625    0.0000 F   0  0  0  0  0  0  0  0  0  0  0  0
    3.2789    1.2375    0.0000 C   0  0  0  0  0  0  0  0  0  0  0  0
    3.9934    0.8250    0.0000 C   0  0  0  0  0  0  0  0  0  0  0  0
    4.7079    1.2375    0.0000 N   0  0  0  0  0  0  0  0  0  0  0  0
    5.4223    0.8250    0.0000 C   0  0  0  0  0  0  0  0  0  0  0  0
    6.1368    1.2375    0.0000 C   0  0  0  0  0  0  0  0  0  0  0  0
    6.2230    2.0580    0.0000 N   0  0  0  0  0  0  0  0  0  0  0  0
    7.0300    2.2295    0.0000 C   0  0  0  0  0  0  0  0  0  0  0  0
    7.4425    1.5150    0.0000 C   0  0  0  0  0  0  0  0  0  0  0  0
    6.8905    0.9019    0.0000 S   0  0  0  0  0  0  0  0  0  0  0  0
    7.3656    2.9832    0.0000 C   0  0  0  0  0  0  0  0  0  0  0  0
    6.8807    3.6506    0.0000 C   0  0  0  0  0  0  0  0  0  0  0  0
    7.2162    4.4043    0.0000 C   0  0  0  0  0  0  0  0  0  0  0  0
    8.0367    4.4905    0.0000 C   0  0  0  0  0  0  0  0  0  0  0  0
    8.5216    3.8231    0.0000 C   0  0  0  0  0  0  0  0  0  0  0  0
    9.3421    3.9093    0.0000 Cl  0  0  0  0  0  0  0  0  0  0  0  0
    8.1861    3.0694    0.0000 C   0  0  0  0  0  0  0  0  0  0  0  0
    3.9934    0.0000    0.0000 C   0  0  0  0  0  0  0  0  0  0  0  0
    3.2789   -0.4125    0.0000 N   0  0  0  0  0  0  0  0  0  0  0  0
    2.5645    0.0000    0.0000 C   0  0  0  0  0  0  0  0  0  0  0  0
    2.5645    0.8250    0.0000 C   0  0  0  0  0  0  0  0  0  0  0  0
    1.7798    1.0799    0.0000 C   0  0  0  0  0  0  0  0  0  0  0  0
    1.2949    0.4125    0.0000 C   0  0  0  0  0  0  0  0  0  0  0  0
    1.7798   -0.2549    0.0000 N   0  0  0  0  0  0  0  0  0  0  0  0
  1  2  1  0  0  0  0
  2  3  2  0  0  0  0
  3  4  1  0  0  0  0
  4  5  1  0  0  0  0
  5  6  1  0  0  0  0
  6  7  2  0  0  0  0
  7  8  1  0  0  0  0
  8  9  2  0  0  0  0
  9 10  1  0  0  0  0
  6 10  1  0  0  0  0
  8 11  1  0  0  0  0
 11 12  2  0  0  0  0
 12 13  1  0  0  0  0
 13 14  2  0  0  0  0
 14 15  1  0  0  0  0
 15 16  1  0  0  0  0
 15 17  2  0  0  0  0
 11 17  1  0  0  0  0
  3 18  1  0  0  0  0
 18 19  2  0  0  0  0
 19 20  1  0  0  0  0
 20 21  2  0  0  0  0
  2 21  1  0  0  0  0
 21 22  1  0  0  0  0
 22 23  2  0  0  0  0
 23 24  1  0  0  0  0
 20 24  1  0  0  0  0
M  END
> <ID>
CPD_2997

$$$$
CPD_3002
  Mrv1822 09091914012D          

 41 46  0  0  0  0            999 V2000
   -0.0734    0.1271    0.0000 C   0  0  0  0  0  0  0  0  0  0  0  0
    0.6411   -0.2854    0.0000 C   0  0  0  0  0  0  0  0  0  0  0  0
    1.3556    0.1271    0.0000 O   0  0  0  0  0  0  0  0  0  0  0  0
    2.0701   -0.2854    0.0000 C   0  0  0  0  0  0  0  0  0  0  0  0
    2.0701   -1.1104    0.0000 O   0  0  0  0  0  0  0  0  0  0  0  0
    2.7845    0.1271    0.0000 C   0  0  0  0  0  0  0  0  0  0  0  0
    2.7845    0.9521    0.0000 N   0  0  0  0  0  0  0  0  0  0  0  0
    3.4990    1.3646    0.0000 C   0  0  0  0  0  0  0  0  0  0  0  0
    3.4990    2.1896    0.0000 C   0  0  0  0  0  0  0  0  0  0  0  0
    4.2135    2.6021    0.0000 C   0  0  0  0  0  0  0  0  0  0  0  0
    4.2135    3.4271    0.0000 O   0  0  0  0  0  0  0  0  0  0  0  0
    4.9279    3.8396    0.0000 C   0  0  0  0  0  0  0  0  0  0  0  0
    4.9279    2.1896    0.0000 C   0  0  0  0  0  0  0  0  0  0  0  0
    5.6424    2.6021    0.0000 O   0  0  0  0  0  0  0  0  0  0  0  0
    5.6424    3.4271    0.0000 C   0  0  0  0  0  0  0  0  0  0  0  0
    4.9279    1.3646    0.0000 C   0  0  0  0  0  0  0  0  0  0  0  0
    4.2135    0.9521    0.0000 C   0  0  0  0  0  0  0  0  0  0  0  0
    4.2135    0.1271    0.0000 C   0  0  0  0  0  0  0  0  0  0  0  0
    4.9279   -0.2854    0.0000 N   0  0  0  0  0  0  0  0  0  0  0  0
    4.9279   -1.1104    0.0000 C   0  0  0  0  0  0  0  0  0  0  0  0
    5.6424   -1.5229    0.0000 C   0  0  0  0  0  0  0  0  0  0  0  0
    5.6424   -2.3479    0.0000 N   0  0  0  0  0  0  0  0  0  0  0  0
    4.9279   -2.7604    0.0000 N   0  0  0  0  0  0  0  0  0  0  0  0
    4.2135   -2.3479    0.0000 C   0  0  0  0  0  0  0  0  0  0  0  0
    3.4288   -2.6029    0.0000 C   0  0  0  0  0  0  0  0  0  0  0  0
    2.9439   -1.9354    0.0000 C   0  0  0  0  0  0  0  0  0  0  0  0
    3.4288   -1.2680    0.0000 N   0  0  0  0  0  0  0  0  0  0  0  0
    4.2135   -1.5229    0.0000 N   0  0  0  0  0  0  0  0  0  0  0  0
    3.1739   -3.3875    0.0000 C   0  0  0  0  0  0  0  0  0  0  0  0
    3.7259   -4.0006    0.0000 C   0  0  0  0  0  0  0  0  0  0  0  0
    3.4710   -4.7852    0.0000 C   0  0  0  0  0  0  0  0  0  0  0  0
    2.6640   -4.9567    0.0000 C   0  0  0  0  0  0  0  0  0  0  0  0
    2.1120   -4.3437    0.0000 C   0  0  0  0  0  0  0  0  0  0  0  0
    2.3669   -3.5590    0.0000 C   0  0  0  0  0  0  0  0  0  0  0  0
    6.3569   -1.1104    0.0000 C   0  0  0  0  0  0  0  0  0  0  0  0
    6.3569   -0.2854    0.0000 C   0  0  0  0  0  0  0  0  0  0  0  0
    7.0714    0.1271    0.0000 C   0  0  0  0  0  0  0  0  0  0  0  0
    7.7858   -0.2854    0.0000 C   0  0  0  0  0  0  0  0  0  0  0  0
    7.7858   -1.1104    0.0000 C   0  0  0  0  0  0  0  0  0  0  0  0
    7.0714   -1.5229    0.0000 C   0  0  0  0  0  0  0  0  0  0  0  0
    3.4990   -0.2854    0.0000 N   0  0  0  0  0  0  0  0  0  0  0  0
  1  2  1  0  0  0  0
  2  3  1  0  0  0  0
  3  4  1  0  0  0  0
  4  5  2  0  0  0  0
  4  6  1  0  0  0  0
  6  7  2  0  0  0  0
  7  8  1  0  0  0  0
  8  9  2  0  0  0  0
  9 10  1  0  0  0  0
 10 11  1  0  0  0  0
 11 12  1  0  0  0  0
 10 13  2  0  0  0  0
 13 14  1  0  0  0  0
 14 15  1  0  0  0  0
 13 16  1  0  0  0  0
 16 17  2  0  0  0  0
  8 17  1  0  0  0  0
 17 18  1  0  0  0  0
 18 19  1  0  0  0  0
 19 20  1  0  0  0  0
 20 21  2  0  0  0  0
 21 22  1  0  0  0  0
 22 23  2  0  0  0  0
 23 24  1  0  0  0  0
 24 25  2  0  0  0  0
 25 26  1  0  0  0  0
 26 27  2  0  0  0  0
 27 28  1  0  0  0  0
 20 28  1  0  0  0  0
 24 28  1  0  0  0  0
 25 29  1  0  0  0  0
 29 30  2  0  0  0  0
 30 31  1  0  0  0  0
 31 32  2  0  0  0  0
 32 33  1  0  0  0  0
 33 34  2  0  0  0  0
 29 34  1  0  0  0  0
 21 35  1  0  0  0  0
 35 36  2  0  0  0  0
 36 37  1  0  0  0  0
 37 38  2  0  0  0  0
 38 39  1  0  0  0  0
 39 40  2  0  0  0  0
 35 40  1  0  0  0  0
 18 41  2  0  0  0  0
  6 41  1  0  0  0  0
M  END
> <ID>
CPD_3002

$$$$
CPD_3007
  Mrv1822 09091914012D          

 22 24  0  0  0  0            999 V2000
    1.4289   -0.0000    0.0000 C   0  0  0  0  0  0  0  0  0  0  0  0
    0.7145   -0.4125    0.0000 C   0  0  0  0  0  0  0  0  0  0  0  0
    0.7145   -1.2375    0.0000 C   0  0  0  0  0  0  0  0  0  0  0  0
    1.3819   -1.7224    0.0000 N   0  0  0  0  0  0  0  0  0  0  0  0
    1.1270   -2.5070    0.0000 N   0  0  0  0  0  0  0  0  0  0  0  0
    0.3020   -2.5070    0.0000 C   0  0  0  0  0  0  0  0  0  0  0  0
   -0.1830   -3.1745    0.0000 N   0  0  0  0  0  0  0  0  0  0  0  0
    0.0470   -1.7224    0.0000 C   0  0  0  0  0  0  0  0  0  0  0  0
   -0.7376   -1.4675    0.0000 C   0  0  0  0  0  0  0  0  0  0  0  0
   -1.3507   -2.0195    0.0000 C   0  0  0  0  0  0  0  0  0  0  0  0
   -2.1353   -1.7646    0.0000 C   0  0  0  0  0  0  0  0  0  0  0  0
   -2.3068   -0.9576    0.0000 C   0  0  0  0  0  0  0  0  0  0  0  0
   -3.0915   -0.7027    0.0000 N   0  0  0  0  0  0  0  0  0  0  0  0
   -3.7045   -1.2547    0.0000 C   0  0  0  0  0  0  0  0  0  0  0  0
   -3.6183   -2.0752    0.0000 N   0  0  0  0  0  0  0  0  0  0  0  0
   -4.3720   -2.4107    0.0000 N   0  0  0  0  0  0  0  0  0  0  0  0
   -4.9240   -1.7976    0.0000 C   0  0  0  0  0  0  0  0  0  0  0  0
   -5.7445   -1.8839    0.0000 C   0  0  0  0  0  0  0  0  0  0  0  0
   -6.0801   -2.6376    0.0000 N   0  0  0  0  0  0  0  0  0  0  0  0
   -4.5115   -1.0832    0.0000 N   0  0  0  0  0  0  0  0  0  0  0  0
   -1.6937   -0.4056    0.0000 C   0  0  0  0  0  0  0  0  0  0  0  0
   -0.9091   -0.6605    0.0000 C   0  0  0  0  0  0  0  0  0  0  0  0
  1  2  1  0  0  0  0
  2  3  1  0  0  0  0
  3  4  2  0  0  0  0
  4  5  1  0  0  0  0
  5  6  1  0  0  0  0
  6  7  1  0  0  0  0
  6  8  2  0  0  0  0
  3  8  1  0  0  0  0
  8  9  1  0  0  0  0
  9 10  2  0  0  0  0
 10 11  1  0  0  0  0
 11 12  2  0  0  0  0
 12 13  1  0  0  0  0
 13 14  1  0  0  0  0
 14 15  2  0  0  0  0
 15 16  1  0  0  0  0
 16 17  1  0  0  0  0
 17 18  1  0  0  0  0
 18 19  1  0  0  0  0
 17 20  2  0  0  0  0
 14 20  1  0  0  0  0
 12 21  1  0  0  0  0
 21 22  2  0  0  0  0
  9 22  1  0  0  0  0
M  END
> <ID>
CPD_3007

$$$$
CPD_3012
  Mrv1822 09091914012D          

 26 28  0  0  0  0            999 V2000
   -0.7145   -0.4125    0.0000 C   0  0  0  0  0  0  0  0  0  0  0  0
   -0.7145   -1.2375    0.0000 C   0  0  0  0  0  0  0  0  0  0  0  0
    0.0000   -1.6500    0.0000 C   0  0  0  0  0  0  0  0  0  0  0  0
    0.7145   -1.2375    0.0000 C   0  0  0  0  0  0  0  0  0  0  0  0
    0.0000   -2.4750    0.0000 C   0  0  0  0  0  0  0  0  0  0  0  0
   -0.7145   -2.8875    0.0000 C   0  0  0  0  0  0  0  0  0  0  0  0
   -1.4289   -2.4750    0.0000 C   0  0  0  0  0  0  0  0  0  0  0  0
   -1.4289   -1.6500    0.0000 C   0  0  0  0  0  0  0  0  0  0  0  0
    0.7145   -2.8875    0.0000 N   0  0  0  0  0  0  0  0  0  0  0  0
    0.7145   -3.7125    0.0000 C   0  0  0  0  0  0  0  0  0  0  0  0
    1.4289   -4.1250    0.0000 N   0  0  0  0  0  0  0  0  0  0  0  0
    1.4289   -4.9500    0.0000 C   0  0  0  0  0  0  0  0  0  0  0  0
    2.1434   -5.3625    0.0000 C   0  0  0  0  0  0  0  0  0  0  0  0
    0.7145   -5.3625    0.0000 C   0  0  0  0  0  0  0  0  0  0  0  0
    0.7145   -6.1875    0.0000 C   0  0  0  0  0  0  0  0  0  0  0  0
   -0.0000   -4.9500    0.0000 C   0  0  0  0  0  0  0  0  0  0  0  0
   -0.7145   -5.3625    0.0000 O   0  0  0  0  0  0  0  0  0  0  0  0
   -0.0000   -4.1250    0.0000 N   0  0  0  0  0  0  0  0  0  0  0  0
    1.4289   -2.4750    0.0000 C   0  0  0  0  0  0  0  0  0  0  0  0
    1.4289   -1.6500    0.0000 C   0  0  0  0  0  0  0  0  0  0  0  0
    2.1434   -1.2375    0.0000 C   0  0  0  0  0  0  0  0  0  0  0  0
    2.1434   -0.4125    0.0000 N   0  0  0  0  0  0  0  0  0  0  0  0
    2.8579   -1.6500    0.0000 C   0  0  0  0  0  0  0  0  0  0  0  0
    2.8579   -2.4750    0.0000 C   0  0  0  0  0  0  0  0  0  0  0  0
    2.1434   -2.8875    0.0000 C   0  0  0  0  0  0  0  0  0  0  0  0
    2.1434   -3.7125    0.0000 O   0  0  0  0  0  0  0  0  0  0  0  0
  1  2  1  0  0  0  0
  2  3  2  0  0  0  0
  3  4  1  0  0  0  0
  3  5  1  0  0  0  0
  5  6  2  0  0  0  0
  6  7  1  0  0  0  0
  7  8  2  0  0  0  0
  2  8  1  0  0  0  0
  5  9  1  0  0  0  0
  9 10  1  0  0  0  0
 10 11  2  0  0  0  0
 11 12  1  0  0  0  0
 12 13  1  0  0  0  0
 12 14  2  0  0  0  0
 14 15  1  0  0  0  0
 14 16  1  0  0  0  0
 16 17  2  0  0  0  0
 16 18  1  0  0  0  0
 10 18  1  0  0  0  0
  9 19  1  0  0  0  0
 19 20  2  0  0  0  0
 20 21  1  0  0  0  0
 21 22  1  0  0  0  0
 21 23  2  0  0  0  0
 23 24  1  0  0  0  0
 24 25  2  0  0  0  0
 19 25  1  0  0  0  0
 25 26  1  0  0  0  0
M  END
> <ID>
CPD_3012

$$$$
CPD_3017
  Mrv1822 09091914012D          

 31 34  0  0  0  0            999 V2000
   -2.9599    0.7615    0.0000 C   0  0  0  0  0  0  0  0  0  0  0  0
   -2.5474    0.0470    0.0000 C   0  0  0  0  0  0  0  0  0  0  0  0
   -1.7224    0.0470    0.0000 O   0  0  0  0  0  0  0  0  0  0  0  0
   -1.3099   -0.6674    0.0000 C   0  0  0  0  0  0  0  0  0  0  0  0
   -1.7224   -1.3819    0.0000 O   0  0  0  0  0  0  0  0  0  0  0  0
   -0.4849   -0.6674    0.0000 C   0  0  0  0  0  0  0  0  0  0  0  0
   -0.0000   -1.3349    0.0000 C   0  0  0  0  0  0  0  0  0  0  0  0
    0.7846   -1.0799    0.0000 C   0  0  0  0  0  0  0  0  0  0  0  0
    0.7846   -0.2549    0.0000 C   0  0  0  0  0  0  0  0  0  0  0  0
   -0.0000    0.0000    0.0000 N   0  0  0  0  0  0  0  0  0  0  0  0
    1.5692    0.0000    0.0000 C   0  0  0  0  0  0  0  0  0  0  0  0
    2.0542   -0.6674    0.0000 C   0  0  0  0  0  0  0  0  0  0  0  0
    1.5692   -1.3349    0.0000 S   0  0  0  0  0  0  0  0  0  0  0  0
    2.8792   -0.6674    0.0000 N   0  0  0  0  0  0  0  0  0  0  0  0
    3.2917   -1.3819    0.0000 C   0  0  0  0  0  0  0  0  0  0  0  0
    4.1167   -1.3819    0.0000 N   0  0  0  0  0  0  0  0  0  0  0  0
    4.5292   -2.0964    0.0000 C   0  0  0  0  0  0  0  0  0  0  0  0
    5.3542   -2.0964    0.0000 C   0  0  0  0  0  0  0  0  0  0  0  0
    4.1167   -2.8109    0.0000 C   0  0  0  0  0  0  0  0  0  0  0  0
    4.5292   -3.5253    0.0000 C   0  0  0  0  0  0  0  0  0  0  0  0
    3.2917   -2.8109    0.0000 C   0  0  0  0  0  0  0  0  0  0  0  0
    2.8792   -3.5253    0.0000 O   0  0  0  0  0  0  0  0  0  0  0  0
    2.8792   -2.0964    0.0000 N   0  0  0  0  0  0  0  0  0  0  0  0
    3.2917    0.0470    0.0000 C   0  0  0  0  0  0  0  0  0  0  0  0
    2.8792    0.7615    0.0000 C   0  0  0  0  0  0  0  0  0  0  0  0
    3.2917    1.4760    0.0000 C   0  0  0  0  0  0  0  0  0  0  0  0
    4.1167    1.4760    0.0000 C   0  0  0  0  0  0  0  0  0  0  0  0
    4.5292    0.7615    0.0000 C   0  0  0  0  0  0  0  0  0  0  0  0
    5.3542    0.7615    0.0000 C   0  0  0  0  0  0  0  0  0  0  0  0
    4.1167    0.0470    0.0000 C   0  0  0  0  0  0  0  0  0  0  0  0
    4.5292   -0.6674    0.0000 C   0  0  0  0  0  0  0  0  0  0  0  0
  1  2  1  0  0  0  0
  2  3  1  0  0  0  0
  3  4  1  0  0  0  0
  4  5  2  0  0  0  0
  4  6  1  0  0  0  0
  6  7  2  0  0  0  0
  7  8  1  0  0  0  0
  8  9  2  0  0  0  0
  9 10  1  0  0  0  0
  6 10  1  0  0  0  0
  9 11  1  0  0  0  0
 11 12  2  0  0  0  0
 12 13  1  0  0  0  0
  8 13  1  0  0  0  0
 12 14  1  0  0  0  0
 14 15  1  0  0  0  0
 15 16  2  0  0  0  0
 16 17  1  0  0  0  0
 17 18  1  0  0  0  0
 17 19  2  0  0  0  0
 19 20  1  0  0  0  0
 19 21  1  0  0  0  0
 21 22  2  0  0  0  0
 21 23  1  0  0  0  0
 15 23  1  0  0  0  0
 14 24  1  0  0  0  0
 24 25  2  0  0  0  0
 25 26  1  0  0  0  0
 26 27  2  0  0  0  0
 27 28  1  0  0  0  0
 28 29  1  0  0  0  0
 28 30  2  0  0  0  0
 24 30  1  0  0  0  0
 30 31  1  0  0  0  0
M  END
> <ID>
CPD_3017

$$$$
CPD_3022
  Mrv1822 09091914012D          

 32 35  0  0  0  0            999 V2000
   -3.5724    2.0625    0.0000 C   0  0  0  0  0  0  0  0  0  0  0  0
   -3.5724    1.2375    0.0000 O   0  0  0  0  0  0  0  0  0  0  0  0
   -2.8579    0.8250    0.0000 C   0  0  0  0  0  0  0  0  0  0  0  0
   -2.1434    1.2375    0.0000 O   0  0  0  0  0  0  0  0  0  0  0  0
   -2.8579    0.0000    0.0000 C   0  0  0  0  0  0  0  0  0  0  0  0
   -2.1434   -0.4125    0.0000 C   0  0  0  0  0  0  0  0  0  0  0  0
   -1.4289   -0.0000    0.0000 F   0  0  0  0  0  0  0  0  0  0  0  0
   -2.1434   -1.2375    0.0000 C   0  0  0  0  0  0  0  0  0  0  0  0
   -1.4289   -1.6500    0.0000 N   0  0  0  0  0  0  0  0  0  0  0  0
   -0.7145   -1.2375    0.0000 C   0  0  0  0  0  0  0  0  0  0  0  0
    0.0000   -1.6500    0.0000 N   0  0  0  0  0  0  0  0  0  0  0  0
    0.7145   -1.2375    0.0000 C   0  0  0  0  0  0  0  0  0  0  0  0
    0.7145   -0.4125    0.0000 C   0  0  0  0  0  0  0  0  0  0  0  0
    0.0000   -0.0000    0.0000 C   0  0  0  0  0  0  0  0  0  0  0  0
   -0.7145   -0.4125    0.0000 N   0  0  0  0  0  0  0  0  0  0  0  0
    1.4289   -0.0000    0.0000 C   0  0  0  0  0  0  0  0  0  0  0  0
    1.4289    0.8250    0.0000 O   0  0  0  0  0  0  0  0  0  0  0  0
    2.1434   -0.4125    0.0000 C   0  0  0  0  0  0  0  0  0  0  0  0
    2.1434   -1.2375    0.0000 C   0  0  0  0  0  0  0  0  0  0  0  0
    1.4289   -1.6500    0.0000 C   0  0  0  0  0  0  0  0  0  0  0  0
    2.8579   -1.6500    0.0000 C   0  0  0  0  0  0  0  0  0  0  0  0
    3.5724   -1.2375    0.0000 C   0  0  0  0  0  0  0  0  0  0  0  0
    4.2868   -1.6500    0.0000 C   0  0  0  0  0  0  0  0  0  0  0  0
    4.2868   -2.4750    0.0000 C   0  0  0  0  0  0  0  0  0  0  0  0
    3.5724   -2.8875    0.0000 C   0  0  0  0  0  0  0  0  0  0  0  0
    2.8579   -2.4750    0.0000 C   0  0  0  0  0  0  0  0  0  0  0  0
    5.0013   -2.8875    0.0000 C   0  0  0  0  0  0  0  0  0  0  0  0
    5.7158   -2.4750    0.0000 C   0  0  0  0  0  0  0  0  0  0  0  0
    5.0013   -3.7125    0.0000 C   0  0  0  0  0  0  0  0  0  0  0  0
   -2.8579   -1.6500    0.0000 N   0  0  0  0  0  0  0  0  0  0  0  0
   -3.5724   -1.2375    0.0000 C   0  0  0  0  0  0  0  0  0  0  0  0
   -3.5724   -0.4125    0.0000 C   0  0  0  0  0  0  0  0  0  0  0  0
  1  2  1  0  0  0  0
  2  3  1  0  0  0  0
  3  4  2  0  0  0  0
  3  5  1  0  0  0  0
  5  6  2  0  0  0  0
  6  7  1  0  0  0  0
  6  8  1  0  0  0  0
  8  9  1  0  0  0  0
  9 10  1  0  0  0  0
 10 11  2  0  0  0  0
 11 12  1  0  0  0  0
 12 13  2  0  0  0  0
 13 14  1  0  0  0  0
 14 15  2  0  0  0  0
 10 15  1  0  0  0  0
 13 16  1  0  0  0  0
 16 17  2  0  0  0  0
 16 18  1  0  0  0  0
 18 19  1  0  0  0  0
 19 20  1  0  0  0  0
 12 20  1  0  0  0  0
 19 21  1  0  0  0  0
 21 22  2  0  0  0  0
 22 23  1  0  0  0  0
 23 24  2  0  0  0  0
 24 25  1  0  0  0  0
 25 26  2  0  0  0  0
 21 26  1  0  0  0  0
 24 27  1  0  0  0  0
 27 28  1  0  0  0  0
 27 29  1  0  0  0  0
  8 30  2  0  0  0  0
 30 31  1  0  0  0  0
 31 32  2  0  0  0  0
  5 32  1  0  0  0  0
M  END
> <ID>
CPD_3022

$$$$
CPD_3027
  Mrv1822 09091914012D          

 23 24  0  0  0  0            999 V2000
    1.3222   -0.0616    0.0000 C   0  0  0  0  0  0  0  0  0  0  0  0
    2.0367   -0.4741    0.0000 C   0  0  0  0  0  0  0  0  0  0  0  0
    2.7512   -0.0616    0.0000 O   0  0  0  0  0  0  0  0  0  0  0  0
    2.0367   -1.2991    0.0000 C   0  0  0  0  0  0  0  0  0  0  0  0
    2.7041   -1.7840    0.0000 C   0  0  0  0  0  0  0  0  0  0  0  0
    3.4888   -1.5291    0.0000 N   0  0  0  0  0  0  0  0  0  0  0  0
    4.1019   -2.0811    0.0000 C   0  0  0  0  0  0  0  0  0  0  0  0
    4.8865   -1.8262    0.0000 C   0  0  0  0  0  0  0  0  0  0  0  0
    5.0580   -1.0192    0.0000 Cl  0  0  0  0  0  0  0  0  0  0  0  0
    5.4996   -2.3782    0.0000 C   0  0  0  0  0  0  0  0  0  0  0  0
    6.2842   -2.1233    0.0000 C   0  0  0  0  0  0  0  0  0  0  0  0
    7.0688   -1.8683    0.0000 N   0  0  0  0  0  0  0  0  0  0  0  0
    5.3281   -3.1852    0.0000 C   0  0  0  0  0  0  0  0  0  0  0  0
    4.5434   -3.4401    0.0000 C   0  0  0  0  0  0  0  0  0  0  0  0
    3.9303   -2.8881    0.0000 N   0  0  0  0  0  0  0  0  0  0  0  0
    5.9411   -3.7372    0.0000 C   0  0  0  0  0  0  0  0  0  0  0  0
    6.5542   -4.2893    0.0000 F   0  0  0  0  0  0  0  0  0  0  0  0
    5.3891   -4.3503    0.0000 F   0  0  0  0  0  0  0  0  0  0  0  0
    6.4932   -3.1241    0.0000 F   0  0  0  0  0  0  0  0  0  0  0  0
    2.4492   -2.5687    0.0000 N   0  0  0  0  0  0  0  0  0  0  0  0
    1.6242   -2.5687    0.0000 N   0  0  0  0  0  0  0  0  0  0  0  0
    1.3693   -1.7840    0.0000 C   0  0  0  0  0  0  0  0  0  0  0  0
    0.5846   -1.5291    0.0000 C   0  0  0  0  0  0  0  0  0  0  0  0
  1  2  1  0  0  0  0
  2  3  2  0  0  0  0
  2  4  1  0  0  0  0
  4  5  2  0  0  0  0
  5  6  1  0  0  0  0
  6  7  1  0  0  0  0
  7  8  2  0  0  0  0
  8  9  1  0  0  0  0
  8 10  1  0  0  0  0
 10 11  1  0  0  0  0
 11 12  3  0  0  0  0
 10 13  2  0  0  0  0
 13 14  1  0  0  0  0
 14 15  2  0  0  0  0
  7 15  1  0  0  0  0
 13 16  1  0  0  0  0
 16 17  1  0  0  0  0
 16 18  1  0  0  0  0
 16 19  1  0  0  0  0
  5 20  1  0  0  0  0
 20 21  1  0  0  0  0
 21 22  2  0  0  0  0
  4 22  1  0  0  0  0
 22 23  1  0  0  0  0
M  END
> <ID>
CPD_3027

$$$$
CPD_3032
  Mrv1822 09091914012D          

 19 20  0  0  0  0            999 V2000
    1.8185    0.5823    0.0000 C   0  0  0  0  0  0  0  0  0  0  0  0
    2.5330    0.1698    0.0000 C   0  0  0  0  0  0  0  0  0  0  0  0
    3.2475    0.5823    0.0000 O   0  0  0  0  0  0  0  0  0  0  0  0
    2.5330   -0.6552    0.0000 C   0  0  0  0  0  0  0  0  0  0  0  0
    3.2004   -1.1401    0.0000 C   0  0  0  0  0  0  0  0  0  0  0  0
    3.9850   -0.8852    0.0000 N   0  0  0  0  0  0  0  0  0  0  0  0
    4.5981   -1.4372    0.0000 C   0  0  0  0  0  0  0  0  0  0  0  0
    5.4051   -1.2657    0.0000 C   0  0  0  0  0  0  0  0  0  0  0  0
    5.8176   -1.9802    0.0000 N   0  0  0  0  0  0  0  0  0  0  0  0
    5.2656   -2.5933    0.0000 N   0  0  0  0  0  0  0  0  0  0  0  0
    4.5119   -2.2577    0.0000 C   0  0  0  0  0  0  0  0  0  0  0  0
    3.7974   -2.6702    0.0000 C   0  0  0  0  0  0  0  0  0  0  0  0
    6.6381   -2.0664    0.0000 C   0  0  0  0  0  0  0  0  0  0  0  0
    7.1230   -1.3990    0.0000 F   0  0  0  0  0  0  0  0  0  0  0  0
    6.9736   -2.8201    0.0000 F   0  0  0  0  0  0  0  0  0  0  0  0
    2.9455   -1.9248    0.0000 N   0  0  0  0  0  0  0  0  0  0  0  0
    2.1205   -1.9248    0.0000 N   0  0  0  0  0  0  0  0  0  0  0  0
    1.8655   -1.1401    0.0000 C   0  0  0  0  0  0  0  0  0  0  0  0
    1.0809   -0.8852    0.0000 C   0  0  0  0  0  0  0  0  0  0  0  0
  1  2  1  0  0  0  0
  2  3  2  0  0  0  0
  2  4  1  0  0  0  0
  4  5  2  0  0  0  0
  5  6  1  0  0  0  0
  6  7  1  0  0  0  0
  7  8  2  0  0  0  0
  8  9  1  0  0  0  0
  9 10  1  0  0  0  0
 10 11  2  0  0  0  0
  7 11  1  0  0  0  0
 11 12  1  0  0  0  0
  9 13  1  0  0  0  0
 13 14  1  0  0  0  0
 13 15  1  0  0  0  0
  5 16  1  0  0  0  0
 16 17  1  0  0  0  0
 17 18  2  0  0  0  0
  4 18  1  0  0  0  0
 18 19  1  0  0  0  0
M  END
> <ID>
CPD_3032

$$$$
CPD_3037
  Mrv1822 09091914012D          

 30 31  0  0  0  0            999 V2000
    0.1067   -0.0616    0.0000 C   0  0  0  0  0  0  0  0  0  0  0  0
   -0.6078   -0.4741    0.0000 C   0  0  0  0  0  0  0  0  0  0  0  0
   -1.3222   -0.0616    0.0000 O   0  0  0  0  0  0  0  0  0  0  0  0
   -0.6078   -1.2991    0.0000 C   0  0  0  0  0  0  0  0  0  0  0  0
   -1.2752   -1.7840    0.0000 C   0  0  0  0  0  0  0  0  0  0  0  0
   -2.0598   -1.5291    0.0000 N   0  0  0  0  0  0  0  0  0  0  0  0
   -2.6729   -2.0811    0.0000 C   0  0  0  0  0  0  0  0  0  0  0  0
   -2.5014   -2.8881    0.0000 C   0  0  0  0  0  0  0  0  0  0  0  0
   -3.1145   -3.4401    0.0000 N   0  0  0  0  0  0  0  0  0  0  0  0
   -3.8991   -3.1852    0.0000 C   0  0  0  0  0  0  0  0  0  0  0  0
   -4.5122   -3.7372    0.0000 N   0  0  0  0  0  0  0  0  0  0  0  0
   -5.2968   -3.4823    0.0000 C   0  0  0  0  0  0  0  0  0  0  0  0
   -5.4684   -2.6753    0.0000 O   0  0  0  0  0  0  0  0  0  0  0  0
   -5.9099   -4.0343    0.0000 C   0  0  0  0  0  0  0  0  0  0  0  0
   -6.5230   -4.5863    0.0000 C   0  0  0  0  0  0  0  0  0  0  0  0
   -6.4620   -3.4212    0.0000 C   0  0  0  0  0  0  0  0  0  0  0  0
   -5.3579   -4.6474    0.0000 C   0  0  0  0  0  0  0  0  0  0  0  0
   -4.0706   -2.3782    0.0000 C   0  0  0  0  0  0  0  0  0  0  0  0
   -3.4575   -1.8262    0.0000 C   0  0  0  0  0  0  0  0  0  0  0  0
   -3.6291   -1.0192    0.0000 O   0  0  0  0  0  0  0  0  0  0  0  0
   -3.0160   -0.4672    0.0000 C   0  0  0  0  0  0  0  0  0  0  0  0
   -2.2314   -0.7221    0.0000 O   0  0  0  0  0  0  0  0  0  0  0  0
   -3.1875    0.3398    0.0000 C   0  0  0  0  0  0  0  0  0  0  0  0
   -2.3805    0.5113    0.0000 C   0  0  0  0  0  0  0  0  0  0  0  0
   -3.9945    0.1683    0.0000 C   0  0  0  0  0  0  0  0  0  0  0  0
   -3.3590    1.1468    0.0000 C   0  0  0  0  0  0  0  0  0  0  0  0
   -1.0203   -2.5687    0.0000 N   0  0  0  0  0  0  0  0  0  0  0  0
   -0.1953   -2.5687    0.0000 N   0  0  0  0  0  0  0  0  0  0  0  0
    0.0597   -1.7840    0.0000 C   0  0  0  0  0  0  0  0  0  0  0  0
    0.8443   -1.5291    0.0000 C   0  0  0  0  0  0  0  0  0  0  0  0
  1  2  1  0  0  0  0
  2  3  2  0  0  0  0
  2  4  1  0  0  0  0
  4  5  2  0  0  0  0
  5  6  1  0  0  0  0
  6  7  1  0  0  0  0
  7  8  2  0  0  0  0
  8  9  1  0  0  0  0
  9 10  2  0  0  0  0
 10 11  1  0  0  0  0
 11 12  1  0  0  0  0
 12 13  2  0  0  0  0
 12 14  1  0  0  0  0
 14 15  1  0  0  0  0
 14 16  1  0  0  0  0
 14 17  1  0  0  0  0
 10 18  1  0  0  0  0
 18 19  2  0  0  0  0
  7 19  1  0  0  0  0
 19 20  1  0  0  0  0
 20 21  1  0  0  0  0
 21 22  2  0  0  0  0
 21 23  1  0  0  0  0
 23 24  1  0  0  0  0
 23 25  1  0  0  0  0
 23 26  1  0  0  0  0
  5 27  1  0  0  0  0
 27 28  1  0  0  0  0
 28 29  2  0  0  0  0
  4 29  1  0  0  0  0
 29 30  1  0  0  0  0
M  END
> <ID>
CPD_3037

$$$$
CPD_3042
  Mrv1822 09091914012D          

 36 41  0  0  0  0            999 V2000
   -2.3044    1.6393    0.0000 C   0  0  0  0  0  0  0  0  0  0  0  0
   -2.0494    0.8547    0.0000 N   0  0  0  0  0  0  0  0  0  0  0  0
   -2.5344    0.1873    0.0000 C   0  0  0  0  0  0  0  0  0  0  0  0
   -3.3594    0.1873    0.0000 O   0  0  0  0  0  0  0  0  0  0  0  0
   -2.0494   -0.4802    0.0000 C   0  0  0  0  0  0  0  0  0  0  0  0
   -2.7639   -0.8927    0.0000 O   0  0  0  0  0  0  0  0  0  0  0  0
   -1.7139   -1.2339    0.0000 C   0  0  0  0  0  0  0  0  0  0  0  0
   -2.1264   -1.9483    0.0000 C   0  0  0  0  0  0  0  0  0  0  0  0
   -1.5743   -2.5614    0.0000 N   0  0  0  0  0  0  0  0  0  0  0  0
   -0.8207   -2.2259    0.0000 C   0  0  0  0  0  0  0  0  0  0  0  0
   -0.9069   -1.4054    0.0000 C   0  0  0  0  0  0  0  0  0  0  0  0
   -0.2395   -0.9205    0.0000 C   0  0  0  0  0  0  0  0  0  0  0  0
    0.5142   -1.2560    0.0000 C   0  0  0  0  0  0  0  0  0  0  0  0
    0.6004   -2.0765    0.0000 C   0  0  0  0  0  0  0  0  0  0  0  0
   -0.0670   -2.5614    0.0000 C   0  0  0  0  0  0  0  0  0  0  0  0
   -1.2648   -0.2252    0.0000 C   0  0  0  0  0  0  0  0  0  0  0  0
   -1.2648    0.5998    0.0000 C   0  0  0  0  0  0  0  0  0  0  0  0
   -0.5503    1.0123    0.0000 C   0  0  0  0  0  0  0  0  0  0  0  0
    0.1641    0.5998    0.0000 C   0  0  0  0  0  0  0  0  0  0  0  0
    0.1641   -0.2252    0.0000 C   0  0  0  0  0  0  0  0  0  0  0  0
    0.8786   -0.6377    0.0000 N   0  0  0  0  0  0  0  0  0  0  0  0
    1.5931   -0.2252    0.0000 C   0  0  0  0  0  0  0  0  0  0  0  0
    1.5931    0.5998    0.0000 C   0  0  0  0  0  0  0  0  0  0  0  0
    2.3075    1.0123    0.0000 C   0  0  0  0  0  0  0  0  0  0  0  0
    2.3075    1.8373    0.0000 O   0  0  0  0  0  0  0  0  0  0  0  0
    3.0220    0.5998    0.0000 N   0  0  0  0  0  0  0  0  0  0  0  0
    3.0220   -0.2252    0.0000 C   0  0  0  0  0  0  0  0  0  0  0  0
    3.7365   -0.6377    0.0000 N   0  0  0  0  0  0  0  0  0  0  0  0
    3.7365   -1.4627    0.0000 C   0  0  0  0  0  0  0  0  0  0  0  0
    4.4510   -1.8752    0.0000 C   0  0  0  0  0  0  0  0  0  0  0  0
    4.4510   -2.7002    0.0000 C   0  0  0  0  0  0  0  0  0  0  0  0
    3.7365   -3.1127    0.0000 C   0  0  0  0  0  0  0  0  0  0  0  0
    3.0220   -2.7002    0.0000 C   0  0  0  0  0  0  0  0  0  0  0  0
    3.0220   -1.8752    0.0000 C   0  0  0  0  0  0  0  0  0  0  0  0
    2.3075   -0.6377    0.0000 N   0  0  0  0  0  0  0  0  0  0  0  0
   -0.5503   -0.6377    0.0000 C   0  0  0  0  0  0  0  0  0  0  0  0
  1  2  1  0  0  0  0
  2  3  1  0  0  0  0
  3  4  2  0  0  0  0
  3  5  1  0  0  0  0
  5  6  1  0  0  0  0
  5  7  1  0  0  0  0
  7  8  2  0  0  0  0
  8  9  1  0  0  0  0
  9 10  1  0  0  0  0
 10 11  2  0  0  0  0
  7 11  1  0  0  0  0
 11 12  1  0  0  0  0
 12 13  2  0  0  0  0
 13 14  1  0  0  0  0
 14 15  2  0  0  0  0
 10 15  1  0  0  0  0
  5 16  1  0  0  0  0
 16 17  2  0  0  0  0
  2 17  1  0  0  0  0
 17 18  1  0  0  0  0
 18 19  2  0  0  0  0
 19 20  1  0  0  0  0
 20 21  1  0  0  0  0
 21 22  1  0  0  0  0
 22 23  2  0  0  0  0
 23 24  1  0  0  0  0
 24 25  2  0  0  0  0
 24 26  1  0  0  0  0
 26 27  1  0  0  0  0
 27 28  1  0  0  0  0
 28 29  1  0  0  0  0
 29 30  1  0  0  0  0
 30 31  1  0  0  0  0
 31 32  1  0  0  0  0
 32 33  1  0  0  0  0
 33 34  1  0  0  0  0
 29 34  1  0  0  0  0
 27 35  2  0  0  0  0
 22 35  1  0  0  0  0
 20 36  2  0  0  0  0
 16 36  1  0  0  0  0
M  END
> <ID>
CPD_3042

$$$$
CPD_3047
  Mrv1822 09091914012D          

 36 41  0  0  0  0            999 V2000
   -0.3984    0.7541    0.0000 C   0  0  0  0  0  0  0  0  0  0  0  0
   -0.1435   -0.0305    0.0000 N   0  0  0  0  0  0  0  0  0  0  0  0
   -0.6284   -0.6979    0.0000 N   0  0  0  0  0  0  0  0  0  0  0  0
   -0.1435   -1.3654    0.0000 C   0  0  0  0  0  0  0  0  0  0  0  0
   -0.3984   -2.1500    0.0000 C   0  0  0  0  0  0  0  0  0  0  0  0
    0.0865   -2.8174    0.0000 N   0  0  0  0  0  0  0  0  0  0  0  0
   -0.3984   -3.4849    0.0000 C   0  0  0  0  0  0  0  0  0  0  0  0
   -1.1831   -3.2299    0.0000 N   0  0  0  0  0  0  0  0  0  0  0  0
   -1.1831   -2.4049    0.0000 O   0  0  0  0  0  0  0  0  0  0  0  0
   -0.1435   -4.2695    0.0000 C   0  0  0  0  0  0  0  0  0  0  0  0
    0.6635   -4.4410    0.0000 C   0  0  0  0  0  0  0  0  0  0  0  0
    0.9184   -5.2257    0.0000 C   0  0  0  0  0  0  0  0  0  0  0  0
    1.7254   -5.3972    0.0000 F   0  0  0  0  0  0  0  0  0  0  0  0
    0.3664   -5.8387    0.0000 C   0  0  0  0  0  0  0  0  0  0  0  0
   -0.4406   -5.6672    0.0000 C   0  0  0  0  0  0  0  0  0  0  0  0
   -0.6955   -4.8826    0.0000 C   0  0  0  0  0  0  0  0  0  0  0  0
    0.6411   -1.1104    0.0000 C   0  0  0  0  0  0  0  0  0  0  0  0
    0.6411   -0.2854    0.0000 C   0  0  0  0  0  0  0  0  0  0  0  0
    1.3556    0.1271    0.0000 C   0  0  0  0  0  0  0  0  0  0  0  0
    2.0701   -0.2854    0.0000 C   0  0  0  0  0  0  0  0  0  0  0  0
    2.0701   -1.1104    0.0000 N   0  0  0  0  0  0  0  0  0  0  0  0
    1.3556   -1.5229    0.0000 C   0  0  0  0  0  0  0  0  0  0  0  0
    2.7845   -1.5229    0.0000 C   0  0  0  0  0  0  0  0  0  0  0  0
    3.4990   -1.1104    0.0000 C   0  0  0  0  0  0  0  0  0  0  0  0
    4.2135   -1.5229    0.0000 C   0  0  0  0  0  0  0  0  0  0  0  0
    4.2135   -2.3479    0.0000 C   0  0  0  0  0  0  0  0  0  0  0  0
    3.4990   -2.7604    0.0000 C   0  0  0  0  0  0  0  0  0  0  0  0
    3.4990   -3.5854    0.0000 N   0  0  0  0  0  0  0  0  0  0  0  0
    4.2135   -3.9979    0.0000 C   0  0  0  0  0  0  0  0  0  0  0  0
    4.2135   -4.8229    0.0000 C   0  0  0  0  0  0  0  0  0  0  0  0
    4.9279   -5.2354    0.0000 C   0  0  0  0  0  0  0  0  0  0  0  0
    4.9279   -6.0604    0.0000 C   0  0  0  0  0  0  0  0  0  0  0  0
    4.2135   -6.4729    0.0000 C   0  0  0  0  0  0  0  0  0  0  0  0
    3.4990   -6.0604    0.0000 N   0  0  0  0  0  0  0  0  0  0  0  0
    3.4990   -5.2354    0.0000 C   0  0  0  0  0  0  0  0  0  0  0  0
    2.7845   -2.3479    0.0000 N   0  0  0  0  0  0  0  0  0  0  0  0
  1  2  1  0  0  0  0
  2  3  1  0  0  0  0
  3  4  2  0  0  0  0
  4  5  1  0  0  0  0
  5  6  2  0  0  0  0
  6  7  1  0  0  0  0
  7  8  2  0  0  0  0
  8  9  1  0  0  0  0
  5  9  1  0  0  0  0
  7 10  1  0  0  0  0
 10 11  2  0  0  0  0
 11 12  1  0  0  0  0
 12 13  1  0  0  0  0
 12 14  2  0  0  0  0
 14 15  1  0  0  0  0
 15 16  2  0  0  0  0
 10 16  1  0  0  0  0
  4 17  1  0  0  0  0
 17 18  2  0  0  0  0
  2 18  1  0  0  0  0
 18 19  1  0  0  0  0
 19 20  1  0  0  0  0
 20 21  1  0  0  0  0
 21 22  1  0  0  0  0
 17 22  1  0  0  0  0
 21 23  1  0  0  0  0
 23 24  2  0  0  0  0
 24 25  1  0  0  0  0
 25 26  2  0  0  0  0
 26 27  1  0  0  0  0
 27 28  1  0  0  0  0
 28 29  1  0  0  0  0
 29 30  1  0  0  0  0
 30 31  2  0  0  0  0
 31 32  1  0  0  0  0
 32 33  2  0  0  0  0
 33 34  1  0  0  0  0
 34 35  2  0  0  0  0
 30 35  1  0  0  0  0
 27 36  2  0  0  0  0
 23 36  1  0  0  0  0
M  END
> <ID>
CPD_3047

$$$$
CPD_3052
  Mrv1822 09091914012D          

 36 40  0  0  0  0            999 V2000
   -0.3984    0.7541    0.0000 C   0  0  0  0  0  0  0  0  0  0  0  0
   -0.1435   -0.0305    0.0000 N   0  0  0  0  0  0  0  0  0  0  0  0
   -0.6284   -0.6979    0.0000 N   0  0  0  0  0  0  0  0  0  0  0  0
   -0.1435   -1.3654    0.0000 C   0  0  0  0  0  0  0  0  0  0  0  0
   -0.3984   -2.1500    0.0000 C   0  0  0  0  0  0  0  0  0  0  0  0
    0.0865   -2.8174    0.0000 N   0  0  0  0  0  0  0  0  0  0  0  0
   -0.3984   -3.4849    0.0000 C   0  0  0  0  0  0  0  0  0  0  0  0
   -1.1831   -3.2299    0.0000 N   0  0  0  0  0  0  0  0  0  0  0  0
   -1.1831   -2.4049    0.0000 O   0  0  0  0  0  0  0  0  0  0  0  0
   -0.1435   -4.2695    0.0000 C   0  0  0  0  0  0  0  0  0  0  0  0
    0.6635   -4.4410    0.0000 C   0  0  0  0  0  0  0  0  0  0  0  0
    0.9184   -5.2257    0.0000 C   0  0  0  0  0  0  0  0  0  0  0  0
    1.7254   -5.3972    0.0000 F   0  0  0  0  0  0  0  0  0  0  0  0
    0.3664   -5.8387    0.0000 C   0  0  0  0  0  0  0  0  0  0  0  0
   -0.4406   -5.6672    0.0000 C   0  0  0  0  0  0  0  0  0  0  0  0
   -0.6955   -4.8826    0.0000 C   0  0  0  0  0  0  0  0  0  0  0  0
    0.6411   -1.1104    0.0000 C   0  0  0  0  0  0  0  0  0  0  0  0
    0.6411   -0.2854    0.0000 C   0  0  0  0  0  0  0  0  0  0  0  0
    1.3556    0.1271    0.0000 C   0  0  0  0  0  0  0  0  0  0  0  0
    2.0701   -0.2854    0.0000 C   0  0  0  0  0  0  0  0  0  0  0  0
    2.0701   -1.1104    0.0000 N   0  0  0  0  0  0  0  0  0  0  0  0
    1.3556   -1.5229    0.0000 C   0  0  0  0  0  0  0  0  0  0  0  0
    2.7845   -1.5229    0.0000 C   0  0  0  0  0  0  0  0  0  0  0  0
    3.4990   -1.1104    0.0000 C   0  0  0  0  0  0  0  0  0  0  0  0
    3.4990   -0.2854    0.0000 F   0  0  0  0  0  0  0  0  0  0  0  0
    4.2135   -1.5229    0.0000 C   0  0  0  0  0  0  0  0  0  0  0  0
    4.9279   -1.1104    0.0000 C   0  0  0  0  0  0  0  0  0  0  0  0
    4.9279   -0.2854    0.0000 C   0  0  0  0  0  0  0  0  0  0  0  0
    4.2135    0.1271    0.0000 N   0  0  0  0  0  0  0  0  0  0  0  0
    5.6424    0.1271    0.0000 C   0  0  0  0  0  0  0  0  0  0  0  0
    5.6424    0.9521    0.0000 O   0  0  0  0  0  0  0  0  0  0  0  0
    6.3569   -0.2854    0.0000 O   0  0  0  0  0  0  0  0  0  0  0  0
    4.2135   -2.3479    0.0000 C   0  0  0  0  0  0  0  0  0  0  0  0
    4.9279   -2.7604    0.0000 Cl  0  0  0  0  0  0  0  0  0  0  0  0
    3.4990   -2.7604    0.0000 C   0  0  0  0  0  0  0  0  0  0  0  0
    2.7845   -2.3479    0.0000 C   0  0  0  0  0  0  0  0  0  0  0  0
  1  2  1  0  0  0  0
  2  3  1  0  0  0  0
  3  4  2  0  0  0  0
  4  5  1  0  0  0  0
  5  6  2  0  0  0  0
  6  7  1  0  0  0  0
  7  8  2  0  0  0  0
  8  9  1  0  0  0  0
  5  9  1  0  0  0  0
  7 10  1  0  0  0  0
 10 11  2  0  0  0  0
 11 12  1  0  0  0  0
 12 13  1  0  0  0  0
 12 14  2  0  0  0  0
 14 15  1  0  0  0  0
 15 16  2  0  0  0  0
 10 16  1  0  0  0  0
  4 17  1  0  0  0  0
 17 18  2  0  0  0  0
  2 18  1  0  0  0  0
 18 19  1  0  0  0  0
 19 20  1  0  0  0  0
 20 21  1  0  0  0  0
 21 22  1  0  0  0  0
 17 22  1  0  0  0  0
 21 23  1  0  0  0  0
 23 24  2  0  0  0  0
 24 25  1  0  0  0  0
 24 26  1  0  0  0  0
 26 27  1  0  0  0  0
 27 28  1  0  0  0  0
 28 29  1  0  0  0  0
 28 30  1  0  0  0  0
 30 31  1  0  0  0  0
 30 32  2  0  0  0  0
 26 33  2  0  0  0  0
 33 34  1  0  0  0  0
 33 35  1  0  0  0  0
 35 36  2  0  0  0  0
 23 36  1  0  0  0  0
M  END
> <ID>
CPD_3052

$$$$
CPD_3057
  Mrv1822 09091914012D          

 31 34  0  0  0  0            999 V2000
   -2.8579   16.6276    0.0000 C   0  0  0  0  0  0  0  0  0  0  0  0
   -2.1434   16.2151    0.0000 C   0  0  0  0  0  0  0  0  0  0  0  0
   -1.4289   16.6276    0.0000 C   0  0  0  0  0  0  0  0  0  0  0  0
   -2.1434   15.3901    0.0000 N   0  0  0  0  0  0  0  0  0  0  0  0
   -1.4289   14.9776    0.0000 C   0  0  0  0  0  0  0  0  0  0  0  0
   -0.7145   15.3901    0.0000 O   0  0  0  0  0  0  0  0  0  0  0  0
   -1.4289   14.1526    0.0000 C   0  0  0  0  0  0  0  0  0  0  0  0
   -0.7145   13.7401    0.0000 C   0  0  0  0  0  0  0  0  0  0  0  0
   -0.7145   12.9151    0.0000 C   0  0  0  0  0  0  0  0  0  0  0  0
   -1.4289   12.5026    0.0000 C   0  0  0  0  0  0  0  0  0  0  0  0
   -1.4289   11.6776    0.0000 O   0  0  0  0  0  0  0  0  0  0  0  0
   -0.7145   11.2651    0.0000 C   0  0  0  0  0  0  0  0  0  0  0  0
   -0.7145   10.4401    0.0000 C   0  0  0  0  0  0  0  0  0  0  0  0
   -0.0000   10.0276    0.0000 C   0  0  0  0  0  0  0  0  0  0  0  0
   -0.0000    9.2026    0.0000 C   0  0  0  0  0  0  0  0  0  0  0  0
   -0.7145    8.7901    0.0000 N   0  0  0  0  0  0  0  0  0  0  0  0
   -1.4289    9.2026    0.0000 C   0  0  0  0  0  0  0  0  0  0  0  0
   -1.4289   10.0276    0.0000 C   0  0  0  0  0  0  0  0  0  0  0  0
   -0.7145    7.9651    0.0000 C   0  0  0  0  0  0  0  0  0  0  0  0
    0.0000    7.5526    0.0000 C   0  0  0  0  0  0  0  0  0  0  0  0
    0.0000    6.7276    0.0000 C   0  0  0  0  0  0  0  0  0  0  0  0
   -0.7145    6.3151    0.0000 C   0  0  0  0  0  0  0  0  0  0  0  0
   -0.7145    5.4901    0.0000 C   0  0  0  0  0  0  0  0  0  0  0  0
   -0.0000    5.0776    0.0000 N   0  0  0  0  0  0  0  0  0  0  0  0
   -0.0000    4.2526    0.0000 C   0  0  0  0  0  0  0  0  0  0  0  0
    0.4125    3.5382    0.0000 C   0  0  0  0  0  0  0  0  0  0  0  0
   -0.4125    3.5382    0.0000 C   0  0  0  0  0  0  0  0  0  0  0  0
   -1.4289    6.7276    0.0000 C   0  0  0  0  0  0  0  0  0  0  0  0
   -1.4289    7.5526    0.0000 C   0  0  0  0  0  0  0  0  0  0  0  0
   -2.1434   12.9151    0.0000 C   0  0  0  0  0  0  0  0  0  0  0  0
   -2.1434   13.7401    0.0000 C   0  0  0  0  0  0  0  0  0  0  0  0
  1  2  1  0  0  0  0
  2  3  1  0  0  0  0
  2  4  1  0  0  0  0
  4  5  1  0  0  0  0
  5  6  2  0  0  0  0
  5  7  1  0  0  0  0
  7  8  2  0  0  0  0
  8  9  1  0  0  0  0
  9 10  2  0  0  0  0
 10 11  1  0  0  0  0
 11 12  1  0  0  0  0
 12 13  1  0  0  0  0
 13 14  1  0  0  0  0
 14 15  1  0  0  0  0
 15 16  1  0  0  0  0
 16 17  1  0  0  0  0
 17 18  1  0  0  0  0
 13 18  1  0  0  0  0
 16 19  1  0  0  0  0
 19 20  2  0  0  0  0
 20 21  1  0  0  0  0
 21 22  2  0  0  0  0
 22 23  1  0  0  0  0
 23 24  1  0  0  0  0
 24 25  1  0  0  0  0
 25 26  1  0  0  0  0
 26 27  1  0  0  0  0
 25 27  1  0  0  0  0
 22 28  1  0  0  0  0
 28 29  2  0  0  0  0
 19 29  1  0  0  0  0
 10 30  1  0  0  0  0
 30 31  2  0  0  0  0
  7 31  1  0  0  0  0
M  END
> <ID>
CPD_3057

$$$$
CPD_3062
  Mrv1822 09091914012D          

 30 32  0  0  0  0            999 V2000
    2.1434   -3.7125    0.0000 C   0  0  0  0  0  0  0  0  0  0  0  0
    1.4289   -4.1250    0.0000 O   0  0  0  0  0  0  0  0  0  0  0  0
    1.4289   -4.9500    0.0000 C   0  0  0  0  0  0  0  0  0  0  0  0
    2.1434   -5.3625    0.0000 C   0  0  0  0  0  0  0  0  0  0  0  0
    2.8579   -4.9500    0.0000 N   0  0  0  0  0  0  0  0  0  0  0  0
    2.1434   -6.1875    0.0000 C   0  0  0  0  0  0  0  0  0  0  0  0
    1.4289   -6.6000    0.0000 C   0  0  0  0  0  0  0  0  0  0  0  0
    1.4289   -7.4250    0.0000 F   0  0  0  0  0  0  0  0  0  0  0  0
    0.7145   -6.1875    0.0000 C   0  0  0  0  0  0  0  0  0  0  0  0
    0.7145   -5.3625    0.0000 C   0  0  0  0  0  0  0  0  0  0  0  0
    0.0000   -6.6000    0.0000 N   0  0  0  0  0  0  0  0  0  0  0  0
    0.0000   -7.4250    0.0000 C   0  0  0  0  0  0  0  0  0  0  0  0
   -0.7145   -7.8375    0.0000 C   0  0  0  0  0  0  0  0  0  0  0  0
   -1.4289   -7.4250    0.0000 C   0  0  0  0  0  0  0  0  0  0  0  0
   -2.1434   -7.8375    0.0000 C   0  0  0  0  0  0  0  0  0  0  0  0
   -2.1434   -8.6625    0.0000 O   0  0  0  0  0  0  0  0  0  0  0  0
   -2.8579   -9.0750    0.0000 C   0  0  0  0  0  0  0  0  0  0  0  0
   -2.8579   -9.9000    0.0000 C   0  0  0  0  0  0  0  0  0  0  0  0
   -3.5724  -10.3125    0.0000 C   0  0  0  0  0  0  0  0  0  0  0  0
   -4.2868   -9.9000    0.0000 C   0  0  0  0  0  0  0  0  0  0  0  0
   -4.2868   -9.0750    0.0000 C   0  0  0  0  0  0  0  0  0  0  0  0
   -3.5724   -8.6625    0.0000 C   0  0  0  0  0  0  0  0  0  0  0  0
   -5.0013  -10.3125    0.0000 C   0  0  0  0  0  0  0  0  0  0  0  0
   -5.7158   -9.9000    0.0000 O   0  0  0  0  0  0  0  0  0  0  0  0
   -5.0013  -11.1375    0.0000 N   0  0  0  0  0  0  0  0  0  0  0  0
   -5.7158  -11.5500    0.0000 C   0  0  0  0  0  0  0  0  0  0  0  0
   -5.7158  -12.3750    0.0000 C   0  0  0  0  0  0  0  0  0  0  0  0
   -6.4302  -11.1375    0.0000 C   0  0  0  0  0  0  0  0  0  0  0  0
   -1.4289   -6.6000    0.0000 C   0  0  0  0  0  0  0  0  0  0  0  0
   -0.7145   -6.1875    0.0000 C   0  0  0  0  0  0  0  0  0  0  0  0
  1  2  1  0  0  0  0
  2  3  1  0  0  0  0
  3  4  2  0  0  0  0
  4  5  1  0  0  0  0
  4  6  1  0  0  0  0
  6  7  2  0  0  0  0
  7  8  1  0  0  0  0
  7  9  1  0  0  0  0
  9 10  2  0  0  0  0
  3 10  1  0  0  0  0
  9 11  1  0  0  0  0
 11 12  1  0  0  0  0
 12 13  1  0  0  0  0
 13 14  1  0  0  0  0
 14 15  1  0  0  0  0
 15 16  1  0  0  0  0
 16 17  1  0  0  0  0
 17 18  2  0  0  0  0
 18 19  1  0  0  0  0
 19 20  2  0  0  0  0
 20 21  1  0  0  0  0
 21 22  2  0  0  0  0
 17 22  1  0  0  0  0
 20 23  1  0  0  0  0
 23 24  2  0  0  0  0
 23 25  1  0  0  0  0
 25 26  1  0  0  0  0
 26 27  1  0  0  0  0
 26 28  1  0  0  0  0
 14 29  1  0  0  0  0
 29 30  1  0  0  0  0
 11 30  1  0  0  0  0
M  END
> <ID>
CPD_3062

$$$$
CPD_3067
  Mrv1822 09091914012D          

 27 31  0  0  0  0            999 V2000
    5.4957    0.6979    0.0000 C   0  0  0  0  0  0  0  0  0  0  0  0
    4.7812    1.1104    0.0000 C   0  0  0  0  0  0  0  0  0  0  0  0
    4.7812    1.9354    0.0000 C   0  0  0  0  0  0  0  0  0  0  0  0
    4.0668    2.3479    0.0000 C   0  0  0  0  0  0  0  0  0  0  0  0
    4.0668    3.1729    0.0000 C   0  0  0  0  0  0  0  0  0  0  0  0
    4.7812    3.5854    0.0000 C   0  0  0  0  0  0  0  0  0  0  0  0
    5.4957    3.1729    0.0000 C   0  0  0  0  0  0  0  0  0  0  0  0
    6.2102    3.5854    0.0000 O   0  0  0  0  0  0  0  0  0  0  0  0
    5.4957    2.3479    0.0000 C   0  0  0  0  0  0  0  0  0  0  0  0
    3.3523    1.9354    0.0000 N   0  0  0  0  0  0  0  0  0  0  0  0
    3.3523    1.1104    0.0000 C   0  0  0  0  0  0  0  0  0  0  0  0
    2.6378    0.6979    0.0000 C   0  0  0  0  0  0  0  0  0  0  0  0
    1.9233    1.1104    0.0000 C   0  0  0  0  0  0  0  0  0  0  0  0
    1.9233    1.9354    0.0000 C   0  0  0  0  0  0  0  0  0  0  0  0
    2.6378    2.3479    0.0000 C   0  0  0  0  0  0  0  0  0  0  0  0
    1.1387    2.1904    0.0000 C   0  0  0  0  0  0  0  0  0  0  0  0
    0.6538    1.5229    0.0000 N   0  0  0  0  0  0  0  0  0  0  0  0
    1.1387    0.8555    0.0000 N   0  0  0  0  0  0  0  0  0  0  0  0
    0.8838    0.0709    0.0000 C   0  0  0  0  0  0  0  0  0  0  0  0
    0.8838    2.9750    0.0000 C   0  0  0  0  0  0  0  0  0  0  0  0
    0.0992    3.2299    0.0000 N   0  0  0  0  0  0  0  0  0  0  0  0
    0.0992    4.0549    0.0000 C   0  0  0  0  0  0  0  0  0  0  0  0
    0.8838    4.3099    0.0000 N   0  0  0  0  0  0  0  0  0  0  0  0
    1.3687    3.6424    0.0000 O   0  0  0  0  0  0  0  0  0  0  0  0
   -0.5683    4.5399    0.0000 C   0  0  0  0  0  0  0  0  0  0  0  0
   -1.3888    4.6261    0.0000 C   0  0  0  0  0  0  0  0  0  0  0  0
   -0.9038    5.2935    0.0000 C   0  0  0  0  0  0  0  0  0  0  0  0
  1  2  1  0  0  0  0
  2  3  1  0  0  0  0
  3  4  2  0  0  0  0
  4  5  1  0  0  0  0
  5  6  2  0  0  0  0
  6  7  1  0  0  0  0
  7  8  1  0  0  0  0
  7  9  2  0  0  0  0
  3  9  1  0  0  0  0
  4 10  1  0  0  0  0
 10 11  1  0  0  0  0
 11 12  1  0  0  0  0
 12 13  1  0  0  0  0
 13 14  2  0  0  0  0
 14 15  1  0  0  0  0
 10 15  1  0  0  0  0
 14 16  1  0  0  0  0
 16 17  2  0  0  0  0
 17 18  1  0  0  0  0
 13 18  1  0  0  0  0
 18 19  1  0  0  0  0
 16 20  1  0  0  0  0
 20 21  2  0  0  0  0
 21 22  1  0  0  0  0
 22 23  2  0  0  0  0
 23 24  1  0  0  0  0
 20 24  1  0  0  0  0
 22 25  1  0  0  0  0
 25 26  1  0  0  0  0
 26 27  1  0  0  0  0
 25 27  1  0  0  0  0
M  END
> <ID>
CPD_3067

$$$$
CPD_3072
  Mrv1822 09091914012D          

 29 33  0  0  0  0            999 V2000
   -0.3984    0.7541    0.0000 C   0  0  0  0  0  0  0  0  0  0  0  0
   -0.1435   -0.0305    0.0000 N   0  0  0  0  0  0  0  0  0  0  0  0
   -0.6284   -0.6979    0.0000 N   0  0  0  0  0  0  0  0  0  0  0  0
   -0.1435   -1.3654    0.0000 C   0  0  0  0  0  0  0  0  0  0  0  0
   -0.3984   -2.1500    0.0000 C   0  0  0  0  0  0  0  0  0  0  0  0
    0.0865   -2.8174    0.0000 N   0  0  0  0  0  0  0  0  0  0  0  0
   -0.3984   -3.4849    0.0000 C   0  0  0  0  0  0  0  0  0  0  0  0
   -1.1831   -3.2299    0.0000 N   0  0  0  0  0  0  0  0  0  0  0  0
   -1.1831   -2.4049    0.0000 O   0  0  0  0  0  0  0  0  0  0  0  0
   -0.1435   -4.2695    0.0000 C   0  0  0  0  0  0  0  0  0  0  0  0
    0.4696   -4.8215    0.0000 C   0  0  0  0  0  0  0  0  0  0  0  0
   -0.3150   -5.0765    0.0000 C   0  0  0  0  0  0  0  0  0  0  0  0
    0.6411   -1.1104    0.0000 C   0  0  0  0  0  0  0  0  0  0  0  0
    0.6411   -0.2854    0.0000 C   0  0  0  0  0  0  0  0  0  0  0  0
    1.3556    0.1271    0.0000 C   0  0  0  0  0  0  0  0  0  0  0  0
    2.0701   -0.2854    0.0000 C   0  0  0  0  0  0  0  0  0  0  0  0
    2.0701   -1.1104    0.0000 N   0  0  0  0  0  0  0  0  0  0  0  0
    1.3556   -1.5229    0.0000 C   0  0  0  0  0  0  0  0  0  0  0  0
    2.7845   -1.5229    0.0000 C   0  0  0  0  0  0  0  0  0  0  0  0
    3.4990   -1.1104    0.0000 C   0  0  0  0  0  0  0  0  0  0  0  0
    4.2135   -1.5229    0.0000 C   0  0  0  0  0  0  0  0  0  0  0  0
    4.9279   -1.1104    0.0000 Cl  0  0  0  0  0  0  0  0  0  0  0  0
    4.2135   -2.3479    0.0000 C   0  0  0  0  0  0  0  0  0  0  0  0
    4.9279   -2.7604    0.0000 N   0  0  0  0  0  0  0  0  0  0  0  0
    3.4990   -2.7604    0.0000 C   0  0  0  0  0  0  0  0  0  0  0  0
    2.7845   -2.3479    0.0000 C   0  0  0  0  0  0  0  0  0  0  0  0
    3.4990   -3.5854    0.0000 C   0  0  0  0  0  0  0  0  0  0  0  0
    2.7845   -3.9979    0.0000 O   0  0  0  0  0  0  0  0  0  0  0  0
    4.2135   -3.9979    0.0000 O   0  0  0  0  0  0  0  0  0  0  0  0
  1  2  1  0  0  0  0
  2  3  1  0  0  0  0
  3  4  2  0  0  0  0
  4  5  1  0  0  0  0
  5  6  2  0  0  0  0
  6  7  1  0  0  0  0
  7  8  2  0  0  0  0
  8  9  1  0  0  0  0
  5  9  1  0  0  0  0
  7 10  1  0  0  0  0
 10 11  1  0  0  0  0
 11 12  1  0  0  0  0
 10 12  1  0  0  0  0
  4 13  1  0  0  0  0
 13 14  2  0  0  0  0
  2 14  1  0  0  0  0
 14 15  1  0  0  0  0
 15 16  1  0  0  0  0
 16 17  1  0  0  0  0
 17 18  1  0  0  0  0
 13 18  1  0  0  0  0
 17 19  1  0  0  0  0
 19 20  2  0  0  0  0
 20 21  1  0  0  0  0
 21 22  1  0  0  0  0
 21 23  2  0  0  0  0
 23 24  1  0  0  0  0
 23 25  1  0  0  0  0
 25 26  2  0  0  0  0
 19 26  1  0  0  0  0
 25 27  1  0  0  0  0
 27 28  1  0  0  0  0
 27 29  2  0  0  0  0
M  END
> <ID>
CPD_3072

$$$$
CPD_3077
  Mrv1822 09091914012D          

 26 28  0  0  0  0            999 V2000
    0.8559    4.5954    0.0000 C   0  0  0  0  0  0  0  0  0  0  0  0
    0.3256    5.2274    0.0000 C   0  0  0  0  0  0  0  0  0  0  0  0
    0.6078    6.0027    0.0000 C   0  0  0  0  0  0  0  0  0  0  0  0
    0.6078    6.8277    0.0000 C   0  0  0  0  0  0  0  0  0  0  0  0
    1.3222    7.2402    0.0000 C   0  0  0  0  0  0  0  0  0  0  0  0
    2.0367    6.8277    0.0000 C   0  0  0  0  0  0  0  0  0  0  0  0
    2.0367    6.0027    0.0000 N   0  0  0  0  0  0  0  0  0  0  0  0
    1.3222    5.5902    0.0000 C   0  0  0  0  0  0  0  0  0  0  0  0
    2.7512    5.5902    0.0000 C   0  0  0  0  0  0  0  0  0  0  0  0
    3.4656    6.0027    0.0000 C   0  0  0  0  0  0  0  0  0  0  0  0
    4.1801    5.5902    0.0000 N   0  0  0  0  0  0  0  0  0  0  0  0
    4.1801    4.7652    0.0000 C   0  0  0  0  0  0  0  0  0  0  0  0
    4.8946    4.3527    0.0000 N   0  0  0  0  0  0  0  0  0  0  0  0
    3.4656    4.3527    0.0000 C   0  0  0  0  0  0  0  0  0  0  0  0
    2.7512    4.7652    0.0000 C   0  0  0  0  0  0  0  0  0  0  0  0
    3.4656    3.5277    0.0000 S   0  0  0  0  0  0  0  0  0  0  0  0
    2.6406    3.5277    0.0000 O   0  0  0  0  0  0  0  0  0  0  0  0
    4.2906    3.5277    0.0000 O   0  0  0  0  0  0  0  0  0  0  0  0
    3.4656    2.7027    0.0000 N   0  0  0  0  0  0  0  0  0  0  0  0
    4.1331    2.2178    0.0000 C   0  0  0  0  0  0  0  0  0  0  0  0
    3.8781    1.4331    0.0000 C   0  0  0  0  0  0  0  0  0  0  0  0
    3.0531    1.4331    0.0000 C   0  0  0  0  0  0  0  0  0  0  0  0
    2.7982    2.2178    0.0000 C   0  0  0  0  0  0  0  0  0  0  0  0
   -0.2047    6.1459    0.0000 C   0  0  0  0  0  0  0  0  0  0  0  0
   -0.4869    6.9212    0.0000 O   0  0  0  0  0  0  0  0  0  0  0  0
   -0.7350    5.5140    0.0000 O   0  0  0  0  0  0  0  0  0  0  0  0
  1  2  1  0  0  0  0
  2  3  1  0  0  0  0
  3  4  1  0  0  0  0
  4  5  1  0  0  0  0
  5  6  1  0  0  0  0
  6  7  1  0  0  0  0
  7  8  1  0  0  0  0
  3  8  1  0  0  0  0
  7  9  1  0  0  0  0
  9 10  2  0  0  0  0
 10 11  1  0  0  0  0
 11 12  2  0  0  0  0
 12 13  1  0  0  0  0
 12 14  1  0  0  0  0
 14 15  2  0  0  0  0
  9 15  1  0  0  0  0
 14 16  1  0  0  0  0
 16 17  2  0  0  0  0
 16 18  2  0  0  0  0
 16 19  1  0  0  0  0
 19 20  1  0  0  0  0
 20 21  1  0  0  0  0
 21 22  1  0  0  0  0
 22 23  1  0  0  0  0
 19 23  1  0  0  0  0
  3 24  1  0  0  0  0
 24 25  1  0  0  0  0
 24 26  2  0  0  0  0
M  END
> <ID>
CPD_3077

$$$$
CPD_3082
  Mrv1822 09091914012D          

 21 23  0  0  0  0            999 V2000
    1.4289   -1.6500    0.0000 C   0  0  0  0  0  0  0  0  0  0  0  0
    0.7145   -1.2375    0.0000 C   0  0  0  0  0  0  0  0  0  0  0  0
    0.7145   -0.4125    0.0000 C   0  0  0  0  0  0  0  0  0  0  0  0
    0.0000    0.0000    0.0000 C   0  0  0  0  0  0  0  0  0  0  0  0
   -0.7846   -0.2549    0.0000 N   0  0  0  0  0  0  0  0  0  0  0  0
   -1.2695    0.4125    0.0000 C   0  0  0  0  0  0  0  0  0  0  0  0
   -2.0945    0.4125    0.0000 O   0  0  0  0  0  0  0  0  0  0  0  0
   -0.7846    1.0799    0.0000 C   0  0  0  0  0  0  0  0  0  0  0  0
   -1.0396    1.8646    0.0000 N   0  0  0  0  0  0  0  0  0  0  0  0
   -0.4875    2.4777    0.0000 C   0  0  0  0  0  0  0  0  0  0  0  0
   -0.7425    3.2623    0.0000 C   0  0  0  0  0  0  0  0  0  0  0  0
   -1.5494    3.4338    0.0000 O   0  0  0  0  0  0  0  0  0  0  0  0
   -0.1904    3.8754    0.0000 C   0  0  0  0  0  0  0  0  0  0  0  0
    0.6165    3.7038    0.0000 C   0  0  0  0  0  0  0  0  0  0  0  0
    0.8715    2.9192    0.0000 C   0  0  0  0  0  0  0  0  0  0  0  0
    1.6784    2.7477    0.0000 O   0  0  0  0  0  0  0  0  0  0  0  0
    0.3194    2.3061    0.0000 C   0  0  0  0  0  0  0  0  0  0  0  0
    0.0000    0.8250    0.0000 C   0  0  0  0  0  0  0  0  0  0  0  0
    0.7145    1.2375    0.0000 C   0  0  0  0  0  0  0  0  0  0  0  0
    1.4289    0.8250    0.0000 C   0  0  0  0  0  0  0  0  0  0  0  0
    1.4289    0.0000    0.0000 C   0  0  0  0  0  0  0  0  0  0  0  0
  1  2  1  0  0  0  0
  2  3  1  0  0  0  0
  3  4  2  0  0  0  0
  4  5  1  0  0  0  0
  5  6  1  0  0  0  0
  6  7  2  0  0  0  0
  6  8  1  0  0  0  0
  8  9  1  0  0  0  0
  9 10  1  0  0  0  0
 10 11  2  0  0  0  0
 11 12  1  0  0  0  0
 11 13  1  0  0  0  0
 13 14  2  0  0  0  0
 14 15  1  0  0  0  0
 15 16  1  0  0  0  0
 15 17  2  0  0  0  0
 10 17  1  0  0  0  0
  8 18  1  0  0  0  0
  4 18  1  0  0  0  0
 18 19  2  0  0  0  0
 19 20  1  0  0  0  0
 20 21  2  0  0  0  0
  3 21  1  0  0  0  0
M  END
> <ID>
CPD_3082

$$$$
CPD_3087
  Mrv1822 09091914012D          

 21 23  0  0  0  0            999 V2000
    1.4289   -1.6500    0.0000 C   0  0  0  0  0  0  0  0  0  0  0  0
    0.7145   -1.2375    0.0000 C   0  0  0  0  0  0  0  0  0  0  0  0
    0.7145   -0.4125    0.0000 C   0  0  0  0  0  0  0  0  0  0  0  0
    0.0000    0.0000    0.0000 C   0  0  0  0  0  0  0  0  0  0  0  0
   -0.7846   -0.2549    0.0000 N   0  0  0  0  0  0  0  0  0  0  0  0
   -1.2695    0.4125    0.0000 C   0  0  0  0  0  0  0  0  0  0  0  0
   -2.0945    0.4125    0.0000 O   0  0  0  0  0  0  0  0  0  0  0  0
   -0.7846    1.0799    0.0000 C   0  0  0  0  0  0  0  0  0  0  0  0
   -1.0396    1.8646    0.0000 N   0  0  0  0  0  0  0  0  0  0  0  0
   -0.4875    2.4777    0.0000 C   0  0  0  0  0  0  0  0  0  0  0  0
   -0.7425    3.2623    0.0000 C   0  0  0  0  0  0  0  0  0  0  0  0
   -0.1904    3.8754    0.0000 C   0  0  0  0  0  0  0  0  0  0  0  0
    0.6165    3.7038    0.0000 C   0  0  0  0  0  0  0  0  0  0  0  0
    1.1686    4.3169    0.0000 C   0  0  0  0  0  0  0  0  0  0  0  0
    0.8715    2.9192    0.0000 C   0  0  0  0  0  0  0  0  0  0  0  0
    1.6784    2.7477    0.0000 N   0  0  0  0  0  0  0  0  0  0  0  0
    0.3194    2.3061    0.0000 C   0  0  0  0  0  0  0  0  0  0  0  0
    0.0000    0.8250    0.0000 C   0  0  0  0  0  0  0  0  0  0  0  0
    0.7145    1.2375    0.0000 C   0  0  0  0  0  0  0  0  0  0  0  0
    1.4289    0.8250    0.0000 C   0  0  0  0  0  0  0  0  0  0  0  0
    1.4289    0.0000    0.0000 C   0  0  0  0  0  0  0  0  0  0  0  0
  1  2  1  0  0  0  0
  2  3  1  0  0  0  0
  3  4  2  0  0  0  0
  4  5  1  0  0  0  0
  5  6  1  0  0  0  0
  6  7  2  0  0  0  0
  6  8  1  0  0  0  0
  8  9  1  0  0  0  0
  9 10  1  0  0  0  0
 10 11  2  0  0  0  0
 11 12  1  0  0  0  0
 12 13  2  0  0  0  0
 13 14  1  0  0  0  0
 13 15  1  0  0  0  0
 15 16  1  0  0  0  0
 15 17  2  0  0  0  0
 10 17  1  0  0  0  0
  8 18  1  0  0  0  0
  4 18  1  0  0  0  0
 18 19  2  0  0  0  0
 19 20  1  0  0  0  0
 20 21  2  0  0  0  0
  3 21  1  0  0  0  0
M  END
> <ID>
CPD_3087

$$$$
CPD_3092
  Mrv1822 09091914012D          

 34 38  0  0  0  0            999 V2000
    9.8959   -1.8348    0.0000 N   0  0  0  0  0  0  0  0  0  0  0  0
    9.8959   -2.6598    0.0000 C   0  0  0  0  0  0  0  0  0  0  0  0
   10.5633   -3.1447    0.0000 C   0  0  0  0  0  0  0  0  0  0  0  0
   10.3084   -3.9294    0.0000 C   0  0  0  0  0  0  0  0  0  0  0  0
    9.4834   -3.9294    0.0000 N   0  0  0  0  0  0  0  0  0  0  0  0
    9.2284   -3.1447    0.0000 N   0  0  0  0  0  0  0  0  0  0  0  0
   10.7933   -4.5968    0.0000 C   0  0  0  0  0  0  0  0  0  0  0  0
   11.6138   -4.5106    0.0000 C   0  0  0  0  0  0  0  0  0  0  0  0
   12.0987   -5.1780    0.0000 C   0  0  0  0  0  0  0  0  0  0  0  0
   11.7632   -5.9317    0.0000 C   0  0  0  0  0  0  0  0  0  0  0  0
   10.9427   -6.0179    0.0000 C   0  0  0  0  0  0  0  0  0  0  0  0
   10.4578   -5.3505    0.0000 C   0  0  0  0  0  0  0  0  0  0  0  0
   10.6071   -6.7716    0.0000 N   0  0  0  0  0  0  0  0  0  0  0  0
   11.0920   -7.4390    0.0000 C   0  0  0  0  0  0  0  0  0  0  0  0
   10.7565   -8.1927    0.0000 C   0  0  0  0  0  0  0  0  0  0  0  0
    9.9360   -8.2789    0.0000 C   0  0  0  0  0  0  0  0  0  0  0  0
    9.6004   -9.0326    0.0000 C   0  0  0  0  0  0  0  0  0  0  0  0
   10.0854   -9.7001    0.0000 O   0  0  0  0  0  0  0  0  0  0  0  0
    9.7498  -10.4537    0.0000 C   0  0  0  0  0  0  0  0  0  0  0  0
   10.2347  -11.1212    0.0000 C   0  0  0  0  0  0  0  0  0  0  0  0
    9.8992  -11.8748    0.0000 C   0  0  0  0  0  0  0  0  0  0  0  0
    9.0787  -11.9611    0.0000 C   0  0  0  0  0  0  0  0  0  0  0  0
    8.5938  -11.2936    0.0000 C   0  0  0  0  0  0  0  0  0  0  0  0
    8.9293  -10.5400    0.0000 C   0  0  0  0  0  0  0  0  0  0  0  0
    8.7431  -12.7148    0.0000 C   0  0  0  0  0  0  0  0  0  0  0  0
    9.2281  -13.3822    0.0000 O   0  0  0  0  0  0  0  0  0  0  0  0
    7.9227  -12.8010    0.0000 N   0  0  0  0  0  0  0  0  0  0  0  0
    7.5871  -13.5547    0.0000 C   0  0  0  0  0  0  0  0  0  0  0  0
    6.7666  -13.6409    0.0000 C   0  0  0  0  0  0  0  0  0  0  0  0
    6.2817  -12.9735    0.0000 O   0  0  0  0  0  0  0  0  0  0  0  0
    6.6173  -12.2198    0.0000 C   0  0  0  0  0  0  0  0  0  0  0  0
    7.4377  -12.1336    0.0000 C   0  0  0  0  0  0  0  0  0  0  0  0
    9.4511   -7.6115    0.0000 C   0  0  0  0  0  0  0  0  0  0  0  0
    9.7866   -6.8578    0.0000 C   0  0  0  0  0  0  0  0  0  0  0  0
  1  2  1  0  0  0  0
  2  3  2  0  0  0  0
  3  4  1  0  0  0  0
  4  5  2  0  0  0  0
  5  6  1  0  0  0  0
  2  6  1  0  0  0  0
  4  7  1  0  0  0  0
  7  8  2  0  0  0  0
  8  9  1  0  0  0  0
  9 10  2  0  0  0  0
 10 11  1  0  0  0  0
 11 12  2  0  0  0  0
  7 12  1  0  0  0  0
 11 13  1  0  0  0  0
 13 14  1  0  0  0  0
 14 15  1  0  0  0  0
 15 16  1  0  0  0  0
 16 17  1  0  0  0  0
 17 18  1  0  0  0  0
 18 19  1  0  0  0  0
 19 20  2  0  0  0  0
 20 21  1  0  0  0  0
 21 22  2  0  0  0  0
 22 23  1  0  0  0  0
 23 24  2  0  0  0  0
 19 24  1  0  0  0  0
 22 25  1  0  0  0  0
 25 26  2  0  0  0  0
 25 27  1  0  0  0  0
 27 28  1  0  0  0  0
 28 29  1  0  0  0  0
 29 30  1  0  0  0  0
 30 31  1  0  0  0  0
 31 32  1  0  0  0  0
 27 32  1  0  0  0  0
 16 33  1  0  0  0  0
 33 34  1  0  0  0  0
 13 34  1  0  0  0  0
M  END
> <ID>
CPD_3092

$$$$
CPD_3097
  Mrv1822 09091914012D          

 32 36  0  0  0  0            999 V2000
   -0.3984    0.7541    0.0000 Br  0  0  0  0  0  0  0  0  0  0  0  0
   -0.1435   -0.0305    0.0000 C   0  0  0  0  0  0  0  0  0  0  0  0
   -0.6284   -0.6979    0.0000 C   0  0  0  0  0  0  0  0  0  0  0  0
   -0.1435   -1.3654    0.0000 S   0  0  0  0  0  0  0  0  0  0  0  0
    0.6411   -1.1104    0.0000 C   0  0  0  0  0  0  0  0  0  0  0  0
    0.6411   -0.2854    0.0000 C   0  0  0  0  0  0  0  0  0  0  0  0
    1.3556    0.1271    0.0000 N   0  0  0  0  0  0  0  0  0  0  0  0
    2.0701   -0.2854    0.0000 C   0  0  0  0  0  0  0  0  0  0  0  0
    2.0701   -1.1104    0.0000 N   0  0  0  0  0  0  0  0  0  0  0  0
    1.3556   -1.5229    0.0000 C   0  0  0  0  0  0  0  0  0  0  0  0
    1.3556   -2.3479    0.0000 N   0  0  0  0  0  0  0  0  0  0  0  0
    2.0701   -2.7604    0.0000 C   0  0  0  0  0  0  0  0  0  0  0  0
    2.0701   -3.5854    0.0000 C   0  0  0  0  0  0  0  0  0  0  0  0
    1.3556   -3.9979    0.0000 C   0  0  0  0  0  0  0  0  0  0  0  0
    1.3556   -4.8229    0.0000 C   0  0  0  0  0  0  0  0  0  0  0  0
    2.0701   -5.2354    0.0000 O   0  0  0  0  0  0  0  0  0  0  0  0
    2.0701   -6.0604    0.0000 C   0  0  0  0  0  0  0  0  0  0  0  0
    2.7845   -6.4729    0.0000 C   0  0  0  0  0  0  0  0  0  0  0  0
    2.7845   -7.2979    0.0000 C   0  0  0  0  0  0  0  0  0  0  0  0
    2.0701   -7.7104    0.0000 C   0  0  0  0  0  0  0  0  0  0  0  0
    1.3556   -7.2979    0.0000 C   0  0  0  0  0  0  0  0  0  0  0  0
    1.3556   -6.4729    0.0000 C   0  0  0  0  0  0  0  0  0  0  0  0
    2.0701   -8.5354    0.0000 C   0  0  0  0  0  0  0  0  0  0  0  0
    2.7845   -8.9479    0.0000 O   0  0  0  0  0  0  0  0  0  0  0  0
    1.3556   -8.9479    0.0000 N   0  0  0  0  0  0  0  0  0  0  0  0
    1.3556   -9.7729    0.0000 C   0  0  0  0  0  0  0  0  0  0  0  0
    0.6411  -10.1854    0.0000 C   0  0  0  0  0  0  0  0  0  0  0  0
   -0.0734   -9.7729    0.0000 O   0  0  0  0  0  0  0  0  0  0  0  0
   -0.0734   -8.9479    0.0000 C   0  0  0  0  0  0  0  0  0  0  0  0
    0.6411   -8.5354    0.0000 C   0  0  0  0  0  0  0  0  0  0  0  0
    0.6411   -3.5854    0.0000 C   0  0  0  0  0  0  0  0  0  0  0  0
    0.6411   -2.7604    0.0000 C   0  0  0  0  0  0  0  0  0  0  0  0
  1  2  1  0  0  0  0
  2  3  2  0  0  0  0
  3  4  1  0  0  0  0
  4  5  1  0  0  0  0
  5  6  2  0  0  0  0
  2  6  1  0  0  0  0
  6  7  1  0  0  0  0
  7  8  2  0  0  0  0
  8  9  1  0  0  0  0
  9 10  2  0  0  0  0
  5 10  1  0  0  0  0
 10 11  1  0  0  0  0
 11 12  1  0  0  0  0
 12 13  1  0  0  0  0
 13 14  1  0  0  0  0
 14 15  1  0  0  0  0
 15 16  1  0  0  0  0
 16 17  1  0  0  0  0
 17 18  2  0  0  0  0
 18 19  1  0  0  0  0
 19 20  2  0  0  0  0
 20 21  1  0  0  0  0
 21 22  2  0  0  0  0
 17 22  1  0  0  0  0
 20 23  1  0  0  0  0
 23 24  2  0  0  0  0
 23 25  1  0  0  0  0
 25 26  1  0  0  0  0
 26 27  1  0  0  0  0
 27 28  1  0  0  0  0
 28 29  1  0  0  0  0
 29 30  1  0  0  0  0
 25 30  1  0  0  0  0
 14 31  1  0  0  0  0
 31 32  1  0  0  0  0
 11 32  1  0  0  0  0
M  END
> <ID>
CPD_3097

$$$$
CPD_3102
  Mrv1822 09091914012D          

 33 36  0  0  0  0            999 V2000
    7.8592   -2.8875    0.0000 N   0  0  0  0  0  0  0  0  0  0  0  0
    7.8592   -3.7125    0.0000 C   0  0  0  0  0  0  0  0  0  0  0  0
    8.5737   -4.1250    0.0000 C   0  0  0  0  0  0  0  0  0  0  0  0
    8.5737   -4.9500    0.0000 C   0  0  0  0  0  0  0  0  0  0  0  0
    7.8592   -5.3625    0.0000 C   0  0  0  0  0  0  0  0  0  0  0  0
    7.8592   -6.1875    0.0000 C   0  0  0  0  0  0  0  0  0  0  0  0
    8.5737   -6.6000    0.0000 C   0  0  0  0  0  0  0  0  0  0  0  0
    8.5737   -7.4250    0.0000 O   0  0  0  0  0  0  0  0  0  0  0  0
    9.2881   -6.1875    0.0000 O   0  0  0  0  0  0  0  0  0  0  0  0
    7.1447   -4.9500    0.0000 C   0  0  0  0  0  0  0  0  0  0  0  0
    7.1447   -4.1250    0.0000 C   0  0  0  0  0  0  0  0  0  0  0  0
    6.4302   -3.7125    0.0000 N   0  0  0  0  0  0  0  0  0  0  0  0
    5.7158   -4.1250    0.0000 C   0  0  0  0  0  0  0  0  0  0  0  0
    5.0013   -3.7125    0.0000 C   0  0  0  0  0  0  0  0  0  0  0  0
    5.0013   -2.8875    0.0000 C   0  0  0  0  0  0  0  0  0  0  0  0
    4.2868   -2.4750    0.0000 C   0  0  0  0  0  0  0  0  0  0  0  0
    3.5724   -2.8875    0.0000 O   0  0  0  0  0  0  0  0  0  0  0  0
    2.8579   -2.4750    0.0000 C   0  0  0  0  0  0  0  0  0  0  0  0
    2.1434   -2.8875    0.0000 C   0  0  0  0  0  0  0  0  0  0  0  0
    1.4289   -2.4750    0.0000 C   0  0  0  0  0  0  0  0  0  0  0  0
    1.4289   -1.6500    0.0000 C   0  0  0  0  0  0  0  0  0  0  0  0
    2.1434   -1.2375    0.0000 C   0  0  0  0  0  0  0  0  0  0  0  0
    2.8579   -1.6500    0.0000 C   0  0  0  0  0  0  0  0  0  0  0  0
    0.7145   -1.2375    0.0000 C   0  0  0  0  0  0  0  0  0  0  0  0
   -0.0000   -1.6500    0.0000 O   0  0  0  0  0  0  0  0  0  0  0  0
    0.7145   -0.4125    0.0000 N   0  0  0  0  0  0  0  0  0  0  0  0
   -0.0000   -0.0000    0.0000 C   0  0  0  0  0  0  0  0  0  0  0  0
   -0.0000    0.8250    0.0000 C   0  0  0  0  0  0  0  0  0  0  0  0
    0.7145    1.2375    0.0000 O   0  0  0  0  0  0  0  0  0  0  0  0
    1.4289    0.8250    0.0000 C   0  0  0  0  0  0  0  0  0  0  0  0
    1.4289   -0.0000    0.0000 C   0  0  0  0  0  0  0  0  0  0  0  0
    5.7158   -2.4750    0.0000 C   0  0  0  0  0  0  0  0  0  0  0  0
    6.4302   -2.8875    0.0000 C   0  0  0  0  0  0  0  0  0  0  0  0
  1  2  1  0  0  0  0
  2  3  2  0  0  0  0
  3  4  1  0  0  0  0
  4  5  2  0  0  0  0
  5  6  1  0  0  0  0
  6  7  1  0  0  0  0
  7  8  1  0  0  0  0
  7  9  2  0  0  0  0
  5 10  1  0  0  0  0
 10 11  2  0  0  0  0
  2 11  1  0  0  0  0
 11 12  1  0  0  0  0
 12 13  1  0  0  0  0
 13 14  1  0  0  0  0
 14 15  1  0  0  0  0
 15 16  1  0  0  0  0
 16 17  1  0  0  0  0
 17 18  1  0  0  0  0
 18 19  2  0  0  0  0
 19 20  1  0  0  0  0
 20 21  2  0  0  0  0
 21 22  1  0  0  0  0
 22 23  2  0  0  0  0
 18 23  1  0  0  0  0
 21 24  1  0  0  0  0
 24 25  2  0  0  0  0
 24 26  1  0  0  0  0
 26 27  1  0  0  0  0
 27 28  1  0  0  0  0
 28 29  1  0  0  0  0
 29 30  1  0  0  0  0
 30 31  1  0  0  0  0
 26 31  1  0  0  0  0
 15 32  1  0  0  0  0
 32 33  1  0  0  0  0
 12 33  1  0  0  0  0
M  END
> <ID>
CPD_3102

$$$$
CPD_3107
  Mrv1822 09091914012D          

 28 31  0  0  0  0            999 V2000
    0.6343   12.3226    0.0000 C   0  0  0  0  0  0  0  0  0  0  0  0
    0.1494   11.6551    0.0000 C   0  0  0  0  0  0  0  0  0  0  0  0
    0.4849   10.9015    0.0000 C   0  0  0  0  0  0  0  0  0  0  0  0
    0.0000   10.2340    0.0000 N   0  0  0  0  0  0  0  0  0  0  0  0
    0.2549    9.4494    0.0000 C   0  0  0  0  0  0  0  0  0  0  0  0
   -0.4125    8.9645    0.0000 C   0  0  0  0  0  0  0  0  0  0  0  0
   -1.0799    9.4494    0.0000 C   0  0  0  0  0  0  0  0  0  0  0  0
   -0.8250   10.2340    0.0000 N   0  0  0  0  0  0  0  0  0  0  0  0
   -0.4125    8.1395    0.0000 N   0  0  0  0  0  0  0  0  0  0  0  0
    0.3020    7.7270    0.0000 C   0  0  0  0  0  0  0  0  0  0  0  0
    0.3020    6.9020    0.0000 C   0  0  0  0  0  0  0  0  0  0  0  0
   -0.4125    6.4895    0.0000 C   0  0  0  0  0  0  0  0  0  0  0  0
   -1.1270    6.9020    0.0000 C   0  0  0  0  0  0  0  0  0  0  0  0
   -1.8414    6.4895    0.0000 C   0  0  0  0  0  0  0  0  0  0  0  0
   -1.8414    5.6645    0.0000 O   0  0  0  0  0  0  0  0  0  0  0  0
   -2.5559    5.2520    0.0000 C   0  0  0  0  0  0  0  0  0  0  0  0
   -2.5559    4.4270    0.0000 C   0  0  0  0  0  0  0  0  0  0  0  0
   -3.2704    4.0145    0.0000 C   0  0  0  0  0  0  0  0  0  0  0  0
   -3.9849    4.4270    0.0000 C   0  0  0  0  0  0  0  0  0  0  0  0
   -3.9849    5.2520    0.0000 C   0  0  0  0  0  0  0  0  0  0  0  0
   -3.2704    5.6645    0.0000 C   0  0  0  0  0  0  0  0  0  0  0  0
   -3.2704    3.1895    0.0000 C   0  0  0  0  0  0  0  0  0  0  0  0
   -3.9849    2.7770    0.0000 O   0  0  0  0  0  0  0  0  0  0  0  0
   -2.5559    2.7770    0.0000 N   0  0  0  0  0  0  0  0  0  0  0  0
   -2.5559    1.9520    0.0000 C   0  0  0  0  0  0  0  0  0  0  0  0
   -2.1434    1.2375    0.0000 C   0  0  0  0  0  0  0  0  0  0  0  0
   -2.9684    1.2375    0.0000 C   0  0  0  0  0  0  0  0  0  0  0  0
   -1.1270    7.7270    0.0000 C   0  0  0  0  0  0  0  0  0  0  0  0
  1  2  1  0  0  0  0
  2  3  1  0  0  0  0
  3  4  1  0  0  0  0
  4  5  1  0  0  0  0
  5  6  2  0  0  0  0
  6  7  1  0  0  0  0
  7  8  2  0  0  0  0
  4  8  1  0  0  0  0
  6  9  1  0  0  0  0
  9 10  1  0  0  0  0
 10 11  1  0  0  0  0
 11 12  1  0  0  0  0
 12 13  1  0  0  0  0
 13 14  1  0  0  0  0
 14 15  1  0  0  0  0
 15 16  1  0  0  0  0
 16 17  2  0  0  0  0
 17 18  1  0  0  0  0
 18 19  2  0  0  0  0
 19 20  1  0  0  0  0
 20 21  2  0  0  0  0
 16 21  1  0  0  0  0
 18 22  1  0  0  0  0
 22 23  2  0  0  0  0
 22 24  1  0  0  0  0
 24 25  1  0  0  0  0
 25 26  1  0  0  0  0
 26 27  1  0  0  0  0
 25 27  1  0  0  0  0
 13 28  1  0  0  0  0
  9 28  1  0  0  0  0
M  END
> <ID>
CPD_3107

$$$$
CPD_3112
  Mrv1822 09091914012D          

 36 39  0  0  0  0            999 V2000
    1.7309   12.6770    0.0000 C   0  0  0  0  0  0  0  0  0  0  0  0
    1.7309   11.8520    0.0000 O   0  0  0  0  0  0  0  0  0  0  0  0
    1.0164   11.4395    0.0000 C   0  0  0  0  0  0  0  0  0  0  0  0
    0.3020   11.8520    0.0000 O   0  0  0  0  0  0  0  0  0  0  0  0
    1.0164   10.6145    0.0000 N   0  0  0  0  0  0  0  0  0  0  0  0
    1.7309   10.2020    0.0000 C   0  0  0  0  0  0  0  0  0  0  0  0
    0.3020   10.2020    0.0000 C   0  0  0  0  0  0  0  0  0  0  0  0
    0.3020    9.3770    0.0000 N   0  0  0  0  0  0  0  0  0  0  0  0
   -0.4125    8.9645    0.0000 C   0  0  0  0  0  0  0  0  0  0  0  0
   -1.1270    9.3770    0.0000 C   0  0  0  0  0  0  0  0  0  0  0  0
   -1.1270   10.2020    0.0000 C   0  0  0  0  0  0  0  0  0  0  0  0
   -0.4125   10.6145    0.0000 C   0  0  0  0  0  0  0  0  0  0  0  0
   -1.8414   10.6145    0.0000 C   0  0  0  0  0  0  0  0  0  0  0  0
   -2.5559   11.0270    0.0000 F   0  0  0  0  0  0  0  0  0  0  0  0
   -1.4289   11.3289    0.0000 F   0  0  0  0  0  0  0  0  0  0  0  0
   -2.2539    9.9000    0.0000 F   0  0  0  0  0  0  0  0  0  0  0  0
   -0.4125    8.1395    0.0000 N   0  0  0  0  0  0  0  0  0  0  0  0
    0.3020    7.7270    0.0000 C   0  0  0  0  0  0  0  0  0  0  0  0
    0.3020    6.9020    0.0000 C   0  0  0  0  0  0  0  0  0  0  0  0
   -0.4125    6.4895    0.0000 C   0  0  0  0  0  0  0  0  0  0  0  0
   -1.1270    6.9020    0.0000 C   0  0  0  0  0  0  0  0  0  0  0  0
   -1.8414    6.4895    0.0000 C   0  0  0  0  0  0  0  0  0  0  0  0
   -1.8414    5.6645    0.0000 O   0  0  0  0  0  0  0  0  0  0  0  0
   -2.5559    5.2520    0.0000 C   0  0  0  0  0  0  0  0  0  0  0  0
   -2.5559    4.4270    0.0000 C   0  0  0  0  0  0  0  0  0  0  0  0
   -3.2704    4.0145    0.0000 C   0  0  0  0  0  0  0  0  0  0  0  0
   -3.9849    4.4270    0.0000 C   0  0  0  0  0  0  0  0  0  0  0  0
   -3.9849    5.2520    0.0000 C   0  0  0  0  0  0  0  0  0  0  0  0
   -3.2704    5.6645    0.0000 C   0  0  0  0  0  0  0  0  0  0  0  0
   -3.2704    3.1895    0.0000 C   0  0  0  0  0  0  0  0  0  0  0  0
   -3.9849    2.7770    0.0000 O   0  0  0  0  0  0  0  0  0  0  0  0
   -2.5559    2.7770    0.0000 N   0  0  0  0  0  0  0  0  0  0  0  0
   -2.5559    1.9520    0.0000 C   0  0  0  0  0  0  0  0  0  0  0  0
   -2.1434    1.2375    0.0000 C   0  0  0  0  0  0  0  0  0  0  0  0
   -2.9684    1.2375    0.0000 C   0  0  0  0  0  0  0  0  0  0  0  0
   -1.1270    7.7270    0.0000 C   0  0  0  0  0  0  0  0  0  0  0  0
  1  2  1  0  0  0  0
  2  3  1  0  0  0  0
  3  4  2  0  0  0  0
  3  5  1  0  0  0  0
  5  6  1  0  0  0  0
  5  7  1  0  0  0  0
  7  8  2  0  0  0  0
  8  9  1  0  0  0  0
  9 10  2  0  0  0  0
 10 11  1  0  0  0  0
 11 12  2  0  0  0  0
  7 12  1  0  0  0  0
 11 13  1  0  0  0  0
 13 14  1  0  0  0  0
 13 15  1  0  0  0  0
 13 16  1  0  0  0  0
  9 17  1  0  0  0  0
 17 18  1  0  0  0  0
 18 19  1  0  0  0  0
 19 20  1  0  0  0  0
 20 21  1  0  0  0  0
 21 22  1  0  0  0  0
 22 23  1  0  0  0  0
 23 24  1  0  0  0  0
 24 25  2  0  0  0  0
 25 26  1  0  0  0  0
 26 27  2  0  0  0  0
 27 28  1  0  0  0  0
 28 29  2  0  0  0  0
 24 29  1  0  0  0  0
 26 30  1  0  0  0  0
 30 31  2  0  0  0  0
 30 32  1  0  0  0  0
 32 33  1  0  0  0  0
 33 34  1  0  0  0  0
 34 35  1  0  0  0  0
 33 35  1  0  0  0  0
 21 36  1  0  0  0  0
 17 36  1  0  0  0  0
M  END
> <ID>
CPD_3112

$$$$
CPD_3117
  Mrv1822 09091914012D          

 39 43  0  0  0  0            999 V2000
   -5.4138   12.6770    0.0000 C   0  0  0  0  0  0  0  0  0  0  0  0
   -4.6993   13.0895    0.0000 O   0  0  0  0  0  0  0  0  0  0  0  0
   -3.9849   12.6770    0.0000 C   0  0  0  0  0  0  0  0  0  0  0  0
   -3.9849   11.8520    0.0000 O   0  0  0  0  0  0  0  0  0  0  0  0
   -3.2704   13.0895    0.0000 C   0  0  0  0  0  0  0  0  0  0  0  0
   -2.5559   12.6770    0.0000 C   0  0  0  0  0  0  0  0  0  0  0  0
   -1.8414   13.0895    0.0000 C   0  0  0  0  0  0  0  0  0  0  0  0
   -1.1270   12.6770    0.0000 C   0  0  0  0  0  0  0  0  0  0  0  0
   -1.1270   11.8520    0.0000 N   0  0  0  0  0  0  0  0  0  0  0  0
   -1.8414   11.4395    0.0000 C   0  0  0  0  0  0  0  0  0  0  0  0
   -2.5559   11.8520    0.0000 C   0  0  0  0  0  0  0  0  0  0  0  0
   -0.4125   11.4395    0.0000 C   0  0  0  0  0  0  0  0  0  0  0  0
    0.3020   11.8520    0.0000 O   0  0  0  0  0  0  0  0  0  0  0  0
   -0.4125   10.6145    0.0000 C   0  0  0  0  0  0  0  0  0  0  0  0
    0.3020   10.2020    0.0000 C   0  0  0  0  0  0  0  0  0  0  0  0
    0.3020    9.3770    0.0000 C   0  0  0  0  0  0  0  0  0  0  0  0
   -0.4125    8.9645    0.0000 C   0  0  0  0  0  0  0  0  0  0  0  0
   -1.1270    9.3770    0.0000 C   0  0  0  0  0  0  0  0  0  0  0  0
   -1.1270   10.2020    0.0000 C   0  0  0  0  0  0  0  0  0  0  0  0
   -0.4125    8.1395    0.0000 N   0  0  0  0  0  0  0  0  0  0  0  0
    0.3020    7.7270    0.0000 C   0  0  0  0  0  0  0  0  0  0  0  0
    0.3020    6.9020    0.0000 C   0  0  0  0  0  0  0  0  0  0  0  0
   -0.4125    6.4895    0.0000 C   0  0  0  0  0  0  0  0  0  0  0  0
   -1.1270    6.9020    0.0000 C   0  0  0  0  0  0  0  0  0  0  0  0
   -1.8414    6.4895    0.0000 C   0  0  0  0  0  0  0  0  0  0  0  0
   -1.8414    5.6645    0.0000 O   0  0  0  0  0  0  0  0  0  0  0  0
   -2.5559    5.2520    0.0000 C   0  0  0  0  0  0  0  0  0  0  0  0
   -2.5559    4.4270    0.0000 C   0  0  0  0  0  0  0  0  0  0  0  0
   -3.2704    4.0145    0.0000 C   0  0  0  0  0  0  0  0  0  0  0  0
   -3.9849    4.4270    0.0000 C   0  0  0  0  0  0  0  0  0  0  0  0
   -3.9849    5.2520    0.0000 C   0  0  0  0  0  0  0  0  0  0  0  0
   -3.2704    5.6645    0.0000 C   0  0  0  0  0  0  0  0  0  0  0  0
   -3.2704    3.1895    0.0000 C   0  0  0  0  0  0  0  0  0  0  0  0
   -3.9849    2.7770    0.0000 O   0  0  0  0  0  0  0  0  0  0  0  0
   -2.5559    2.7770    0.0000 N   0  0  0  0  0  0  0  0  0  0  0  0
   -2.5559    1.9520    0.0000 C   0  0  0  0  0  0  0  0  0  0  0  0
   -2.1434    1.2375    0.0000 C   0  0  0  0  0  0  0  0  0  0  0  0
   -2.9684    1.2375    0.0000 C   0  0  0  0  0  0  0  0  0  0  0  0
   -1.1270    7.7270    0.0000 C   0  0  0  0  0  0  0  0  0  0  0  0
  1  2  1  0  0  0  0
  2  3  1  0  0  0  0
  3  4  2  0  0  0  0
  3  5  1  0  0  0  0
  5  6  1  0  0  0  0
  6  7  1  0  0  0  0
  7  8  1  0  0  0  0
  8  9  1  0  0  0  0
  9 10  1  0  0  0  0
 10 11  1  0  0  0  0
  6 11  1  0  0  0  0
  9 12  1  0  0  0  0
 12 13  2  0  0  0  0
 12 14  1  0  0  0  0
 14 15  2  0  0  0  0
 15 16  1  0  0  0  0
 16 17  2  0  0  0  0
 17 18  1  0  0  0  0
 18 19  2  0  0  0  0
 14 19  1  0  0  0  0
 17 20  1  0  0  0  0
 20 21  1  0  0  0  0
 21 22  1  0  0  0  0
 22 23  1  0  0  0  0
 23 24  1  0  0  0  0
 24 25  1  0  0  0  0
 25 26  1  0  0  0  0
 26 27  1  0  0  0  0
 27 28  2  0  0  0  0
 28 29  1  0  0  0  0
 29 30  2  0  0  0  0
 30 31  1  0  0  0  0
 31 32  2  0  0  0  0
 27 32  1  0  0  0  0
 29 33  1  0  0  0  0
 33 34  2  0  0  0  0
 33 35  1  0  0  0  0
 35 36  1  0  0  0  0
 36 37  1  0  0  0  0
 37 38  1  0  0  0  0
 36 38  1  0  0  0  0
 24 39  1  0  0  0  0
 20 39  1  0  0  0  0
M  END
> <ID>
CPD_3117

$$$$
CPD_3122
  Mrv1822 09091914012D          

 28 30  0  0  0  0            999 V2000
   -1.3222   -1.7116    0.0000 C   0  0  0  0  0  0  0  0  0  0  0  0
   -1.3222   -2.5366    0.0000 O   0  0  0  0  0  0  0  0  0  0  0  0
   -0.6078   -2.9491    0.0000 C   0  0  0  0  0  0  0  0  0  0  0  0
    0.1067   -2.5366    0.0000 O   0  0  0  0  0  0  0  0  0  0  0  0
   -0.6078   -3.7741    0.0000 C   0  0  0  0  0  0  0  0  0  0  0  0
    0.0597   -4.2590    0.0000 C   0  0  0  0  0  0  0  0  0  0  0  0
    0.8443   -4.0041    0.0000 N   0  0  0  0  0  0  0  0  0  0  0  0
   -0.1953   -5.0437    0.0000 N   0  0  0  0  0  0  0  0  0  0  0  0
   -1.0203   -5.0437    0.0000 N   0  0  0  0  0  0  0  0  0  0  0  0
   -1.2752   -4.2590    0.0000 N   0  0  0  0  0  0  0  0  0  0  0  0
    0.2897   -5.7111    0.0000 C   0  0  0  0  0  0  0  0  0  0  0  0
    1.1101   -5.6249    0.0000 C   0  0  0  0  0  0  0  0  0  0  0  0
    1.5951   -6.2923    0.0000 C   0  0  0  0  0  0  0  0  0  0  0  0
    2.4155   -6.2061    0.0000 N   0  0  0  0  0  0  0  0  0  0  0  0
    2.7511   -5.4524    0.0000 C   0  0  0  0  0  0  0  0  0  0  0  0
    2.2662   -4.7849    0.0000 C   0  0  0  0  0  0  0  0  0  0  0  0
    2.6017   -4.0313    0.0000 O   0  0  0  0  0  0  0  0  0  0  0  0
    1.4457   -4.8712    0.0000 O   0  0  0  0  0  0  0  0  0  0  0  0
    3.5716   -5.3661    0.0000 C   0  0  0  0  0  0  0  0  0  0  0  0
    3.9071   -4.6125    0.0000 C   0  0  0  0  0  0  0  0  0  0  0  0
    4.7276   -4.5262    0.0000 C   0  0  0  0  0  0  0  0  0  0  0  0
    5.0632   -3.7726    0.0000 O   0  0  0  0  0  0  0  0  0  0  0  0
    5.2125   -5.1937    0.0000 C   0  0  0  0  0  0  0  0  0  0  0  0
    4.8770   -5.9473    0.0000 C   0  0  0  0  0  0  0  0  0  0  0  0
    4.0565   -6.0336    0.0000 C   0  0  0  0  0  0  0  0  0  0  0  0
    1.2595   -7.0460    0.0000 C   0  0  0  0  0  0  0  0  0  0  0  0
    0.4390   -7.1322    0.0000 C   0  0  0  0  0  0  0  0  0  0  0  0
   -0.0459   -6.4648    0.0000 C   0  0  0  0  0  0  0  0  0  0  0  0
  1  2  1  0  0  0  0
  2  3  1  0  0  0  0
  3  4  2  0  0  0  0
  3  5  1  0  0  0  0
  5  6  2  0  0  0  0
  6  7  1  0  0  0  0
  6  8  1  0  0  0  0
  8  9  1  0  0  0  0
  9 10  2  0  0  0  0
  5 10  1  0  0  0  0
  8 11  1  0  0  0  0
 11 12  2  0  0  0  0
 12 13  1  0  0  0  0
 13 14  1  0  0  0  0
 14 15  1  0  0  0  0
 15 16  1  0  0  0  0
 16 17  1  0  0  0  0
 16 18  2  0  0  0  0
 15 19  1  0  0  0  0
 19 20  2  0  0  0  0
 20 21  1  0  0  0  0
 21 22  1  0  0  0  0
 21 23  2  0  0  0  0
 23 24  1  0  0  0  0
 24 25  2  0  0  0  0
 19 25  1  0  0  0  0
 13 26  2  0  0  0  0
 26 27  1  0  0  0  0
 27 28  2  0  0  0  0
 11 28  1  0  0  0  0
M  END
> <ID>
CPD_3122

$$$$
CPD_3127
  Mrv1822 09091914012D          

 23 25  0  0  0  0            999 V2000
   -0.0000   -2.4750    0.0000 O   0  0  0  0  0  0  0  0  0  0  0  0
   -0.7145   -2.8875    0.0000 C   0  0  0  0  0  0  0  0  0  0  0  0
   -0.7145   -3.7125    0.0000 O   0  0  0  0  0  0  0  0  0  0  0  0
   -1.4289   -2.4750    0.0000 C   0  0  0  0  0  0  0  0  0  0  0  0
   -1.4289   -1.6500    0.0000 N   0  0  0  0  0  0  0  0  0  0  0  0
   -0.7145   -1.2375    0.0000 C   0  0  0  0  0  0  0  0  0  0  0  0
    0.0000   -1.6500    0.0000 C   0  0  0  0  0  0  0  0  0  0  0  0
    0.7145   -1.2375    0.0000 C   0  0  0  0  0  0  0  0  0  0  0  0
    0.7145   -0.4125    0.0000 C   0  0  0  0  0  0  0  0  0  0  0  0
    1.4289   -0.0000    0.0000 N   0  0  0  0  0  0  0  0  0  0  0  0
    2.1434   -0.4125    0.0000 N   0  0  0  0  0  0  0  0  0  0  0  0
    2.1434   -1.2375    0.0000 C   0  0  0  0  0  0  0  0  0  0  0  0
    1.4289   -1.6500    0.0000 C   0  0  0  0  0  0  0  0  0  0  0  0
    1.4289   -2.4750    0.0000 O   0  0  0  0  0  0  0  0  0  0  0  0
    0.0000   -0.0000    0.0000 C   0  0  0  0  0  0  0  0  0  0  0  0
   -0.7145   -0.4125    0.0000 C   0  0  0  0  0  0  0  0  0  0  0  0
   -2.1434   -2.8875    0.0000 C   0  0  0  0  0  0  0  0  0  0  0  0
   -2.1434   -3.7125    0.0000 C   0  0  0  0  0  0  0  0  0  0  0  0
   -2.8579   -4.1250    0.0000 C   0  0  0  0  0  0  0  0  0  0  0  0
   -2.8579   -4.9500    0.0000 O   0  0  0  0  0  0  0  0  0  0  0  0
   -3.5724   -3.7125    0.0000 C   0  0  0  0  0  0  0  0  0  0  0  0
   -3.5724   -2.8875    0.0000 C   0  0  0  0  0  0  0  0  0  0  0  0
   -2.8579   -2.4750    0.0000 C   0  0  0  0  0  0  0  0  0  0  0  0
  1  2  1  0  0  0  0
  2  3  2  0  0  0  0
  2  4  1  0  0  0  0
  4  5  1  0  0  0  0
  5  6  1  0  0  0  0
  6  7  2  0  0  0  0
  7  8  1  0  0  0  0
  8  9  2  0  0  0  0
  9 10  1  0  0  0  0
 10 11  1  0  0  0  0
 11 12  2  0  0  0  0
 12 13  1  0  0  0  0
  8 13  1  0  0  0  0
 13 14  2  0  0  0  0
  9 15  1  0  0  0  0
 15 16  2  0  0  0  0
  6 16  1  0  0  0  0
  4 17  1  0  0  0  0
 17 18  2  0  0  0  0
 18 19  1  0  0  0  0
 19 20  1  0  0  0  0
 19 21  2  0  0  0  0
 21 22  1  0  0  0  0
 22 23  2  0  0  0  0
 17 23  1  0  0  0  0
M  END
> <ID>
CPD_3127

$$$$
CPD_3132
  Mrv1822 09091914012D          

 24 25  0  0  0  0            999 V2000
    0.7145   -6.1875    0.0000 C   0  0  0  0  0  0  0  0  0  0  0  0
    1.4289   -6.6000    0.0000 C   0  0  0  0  0  0  0  0  0  0  0  0
    2.1434   -6.1875    0.0000 C   0  0  0  0  0  0  0  0  0  0  0  0
    2.8579   -6.6000    0.0000 N   0  0  0  0  0  0  0  0  0  0  0  0
    3.5724   -6.1875    0.0000 C   0  0  0  0  0  0  0  0  0  0  0  0
    4.2868   -6.6000    0.0000 C   0  0  0  0  0  0  0  0  0  0  0  0
    5.0013   -6.1875    0.0000 C   0  0  0  0  0  0  0  0  0  0  0  0
    5.7158   -6.6000    0.0000 C   0  0  0  0  0  0  0  0  0  0  0  0
    5.7158   -7.4250    0.0000 C   0  0  0  0  0  0  0  0  0  0  0  0
    6.4302   -7.8375    0.0000 N   0  0  0  0  0  0  0  0  0  0  0  0
    7.1447   -7.4250    0.0000 C   0  0  0  0  0  0  0  0  0  0  0  0
    7.1447   -6.6000    0.0000 C   0  0  0  0  0  0  0  0  0  0  0  0
    7.8592   -6.1875    0.0000 O   0  0  0  0  0  0  0  0  0  0  0  0
    6.4302   -6.1875    0.0000 O   0  0  0  0  0  0  0  0  0  0  0  0
    7.8592   -7.8375    0.0000 C   0  0  0  0  0  0  0  0  0  0  0  0
    8.5737   -7.4250    0.0000 C   0  0  0  0  0  0  0  0  0  0  0  0
    9.2881   -7.8375    0.0000 C   0  0  0  0  0  0  0  0  0  0  0  0
   10.0026   -7.4250    0.0000 O   0  0  0  0  0  0  0  0  0  0  0  0
    9.2881   -8.6625    0.0000 C   0  0  0  0  0  0  0  0  0  0  0  0
    8.5737   -9.0750    0.0000 C   0  0  0  0  0  0  0  0  0  0  0  0
    7.8592   -8.6625    0.0000 C   0  0  0  0  0  0  0  0  0  0  0  0
    5.0013   -7.8375    0.0000 C   0  0  0  0  0  0  0  0  0  0  0  0
    5.0013   -8.6625    0.0000 Cl  0  0  0  0  0  0  0  0  0  0  0  0
    4.2868   -7.4250    0.0000 C   0  0  0  0  0  0  0  0  0  0  0  0
  1  2  1  0  0  0  0
  2  3  1  0  0  0  0
  3  4  1  0  0  0  0
  4  5  1  0  0  0  0
  5  6  1  0  0  0  0
  6  7  2  0  0  0  0
  7  8  1  0  0  0  0
  8  9  2  0  0  0  0
  9 10  1  0  0  0  0
 10 11  1  0  0  0  0
 11 12  1  0  0  0  0
 12 13  1  0  0  0  0
 12 14  2  0  0  0  0
 11 15  1  0  0  0  0
 15 16  2  0  0  0  0
 16 17  1  0  0  0  0
 17 18  1  0  0  0  0
 17 19  2  0  0  0  0
 19 20  1  0  0  0  0
 20 21  2  0  0  0  0
 15 21  1  0  0  0  0
  9 22  1  0  0  0  0
 22 23  1  0  0  0  0
 22 24  2  0  0  0  0
  6 24  1  0  0  0  0
M  END
> <ID>
CPD_3132

$$$$
CPD_3137
  Mrv1822 09091914012D          

 31 34  0  0  0  0            999 V2000
    4.5741    3.0436    0.0000 C   0  0  0  0  0  0  0  0  0  0  0  0
    4.2162    2.3003    0.0000 N   0  0  0  0  0  0  0  0  0  0  0  0
    4.7305    1.6553    0.0000 C   0  0  0  0  0  0  0  0  0  0  0  0
    4.5470    0.8510    0.0000 C   0  0  0  0  0  0  0  0  0  0  0  0
    5.1517    0.2898    0.0000 C   0  0  0  0  0  0  0  0  0  0  0  0
    5.9401    0.5330    0.0000 C   0  0  0  0  0  0  0  0  0  0  0  0
    6.1237    1.3373    0.0000 C   0  0  0  0  0  0  0  0  0  0  0  0
    5.5189    1.8985    0.0000 C   0  0  0  0  0  0  0  0  0  0  0  0
    3.8037    0.4930    0.0000 C   0  0  0  0  0  0  0  0  0  0  0  0
    3.8037   -0.3320    0.0000 O   0  0  0  0  0  0  0  0  0  0  0  0
    3.0604    0.8510    0.0000 C   0  0  0  0  0  0  0  0  0  0  0  0
    2.8768    1.6553    0.0000 C   0  0  0  0  0  0  0  0  0  0  0  0
    2.0884    1.8985    0.0000 C   0  0  0  0  0  0  0  0  0  0  0  0
    1.4837    1.3373    0.0000 C   0  0  0  0  0  0  0  0  0  0  0  0
    0.6953    1.5805    0.0000 N   0  0  0  0  0  0  0  0  0  0  0  0
    0.0906    1.0194    0.0000 C   0  0  0  0  0  0  0  0  0  0  0  0
    0.2741    0.2150    0.0000 C   0  0  0  0  0  0  0  0  0  0  0  0
   -0.3306   -0.3461    0.0000 O   0  0  0  0  0  0  0  0  0  0  0  0
    1.0625   -0.0281    0.0000 O   0  0  0  0  0  0  0  0  0  0  0  0
   -0.6978    1.2625    0.0000 C   0  0  0  0  0  0  0  0  0  0  0  0
   -1.3026    0.7014    0.0000 C   0  0  0  0  0  0  0  0  0  0  0  0
   -2.0909    0.9446    0.0000 C   0  0  0  0  0  0  0  0  0  0  0  0
   -2.6957    0.3834    0.0000 O   0  0  0  0  0  0  0  0  0  0  0  0
   -2.2745    1.7489    0.0000 C   0  0  0  0  0  0  0  0  0  0  0  0
   -1.6697    2.3100    0.0000 C   0  0  0  0  0  0  0  0  0  0  0  0
   -0.8814    2.0668    0.0000 C   0  0  0  0  0  0  0  0  0  0  0  0
    1.6673    0.5330    0.0000 C   0  0  0  0  0  0  0  0  0  0  0  0
    2.4556    0.2898    0.0000 C   0  0  0  0  0  0  0  0  0  0  0  0
    3.3912    2.3003    0.0000 S   0  0  0  0  0  0  0  0  0  0  0  0
    2.7348    2.8001    0.0000 O   0  0  0  0  0  0  0  0  0  0  0  0
    3.4097    3.1251    0.0000 O   0  0  0  0  0  0  0  0  0  0  0  0
  1  2  1  0  0  0  0
  2  3  1  0  0  0  0
  3  4  2  0  0  0  0
  4  5  1  0  0  0  0
  5  6  2  0  0  0  0
  6  7  1  0  0  0  0
  7  8  2  0  0  0  0
  3  8  1  0  0  0  0
  4  9  1  0  0  0  0
  9 10  1  0  0  0  0
  9 11  1  0  0  0  0
 11 12  2  0  0  0  0
 12 13  1  0  0  0  0
 13 14  2  0  0  0  0
 14 15  1  0  0  0  0
 15 16  1  0  0  0  0
 16 17  1  0  0  0  0
 17 18  1  0  0  0  0
 17 19  2  0  0  0  0
 16 20  1  0  0  0  0
 20 21  2  0  0  0  0
 21 22  1  0  0  0  0
 22 23  1  0  0  0  0
 22 24  2  0  0  0  0
 24 25  1  0  0  0  0
 25 26  2  0  0  0  0
 20 26  1  0  0  0  0
 14 27  1  0  0  0  0
 27 28  2  0  0  0  0
 11 28  1  0  0  0  0
 12 29  1  0  0  0  0
  2 29  1  0  0  0  0
 29 30  2  0  0  0  0
 29 31  2  0  0  0  0
M  END
> <ID>
CPD_3137

$$$$
CPD_3142
  Mrv1822 09091914012D          

 20 21  0  0  0  0            999 V2000
    0.6126    0.0498    0.0000 C   0  0  0  0  0  0  0  0  0  0  0  0
    1.2445   -0.4805    0.0000 C   0  0  0  0  0  0  0  0  0  0  0  0
    0.7142   -1.1125    0.0000 C   0  0  0  0  0  0  0  0  0  0  0  0
    1.7748    0.1515    0.0000 C   0  0  0  0  0  0  0  0  0  0  0  0
    1.8765   -1.0108    0.0000 C   0  0  0  0  0  0  0  0  0  0  0  0
    2.2890   -1.7252    0.0000 C   0  0  0  0  0  0  0  0  0  0  0  0
    1.4640   -1.7252    0.0000 C   0  0  0  0  0  0  0  0  0  0  0  0
    2.5085   -0.4805    0.0000 N   0  0  0  0  0  0  0  0  0  0  0  0
    3.2838   -0.7626    0.0000 C   0  0  0  0  0  0  0  0  0  0  0  0
    3.9158   -0.2323    0.0000 C   0  0  0  0  0  0  0  0  0  0  0  0
    4.6910   -0.5145    0.0000 C   0  0  0  0  0  0  0  0  0  0  0  0
    4.8343   -1.3270    0.0000 C   0  0  0  0  0  0  0  0  0  0  0  0
    5.6095   -1.6091    0.0000 C   0  0  0  0  0  0  0  0  0  0  0  0
    6.2415   -1.0788    0.0000 N   0  0  0  0  0  0  0  0  0  0  0  0
    5.7528   -2.4216    0.0000 C   0  0  0  0  0  0  0  0  0  0  0  0
    6.5280   -2.7038    0.0000 O   0  0  0  0  0  0  0  0  0  0  0  0
    5.1208   -2.9519    0.0000 O   0  0  0  0  0  0  0  0  0  0  0  0
    4.2023   -1.8573    0.0000 C   0  0  0  0  0  0  0  0  0  0  0  0
    4.3455   -2.6697    0.0000 F   0  0  0  0  0  0  0  0  0  0  0  0
    3.4270   -1.5751    0.0000 C   0  0  0  0  0  0  0  0  0  0  0  0
  1  2  1  0  0  0  0
  2  3  1  0  0  0  0
  2  4  1  0  0  0  0
  2  5  1  0  0  0  0
  5  6  1  0  0  0  0
  6  7  1  0  0  0  0
  5  7  1  0  0  0  0
  5  8  1  0  0  0  0
  8  9  1  0  0  0  0
  9 10  2  0  0  0  0
 10 11  1  0  0  0  0
 11 12  2  0  0  0  0
 12 13  1  0  0  0  0
 13 14  1  0  0  0  0
 13 15  1  0  0  0  0
 15 16  1  0  0  0  0
 15 17  2  0  0  0  0
 12 18  1  0  0  0  0
 18 19  1  0  0  0  0
 18 20  2  0  0  0  0
  9 20  1  0  0  0  0
M  END
> <ID>
CPD_3142

$$$$
CPD_3147
  Mrv1822 09091914012D          

 19 20  0  0  0  0            999 V2000
    5.4685    3.0666    0.0000 C   0  0  0  0  0  0  0  0  0  0  0  0
    4.8366    2.5363    0.0000 C   0  0  0  0  0  0  0  0  0  0  0  0
    4.0613    2.8185    0.0000 O   0  0  0  0  0  0  0  0  0  0  0  0
    4.9798    1.7238    0.0000 C   0  0  0  0  0  0  0  0  0  0  0  0
    5.7551    1.4417    0.0000 C   0  0  0  0  0  0  0  0  0  0  0  0
    6.3870    1.9720    0.0000 Cl  0  0  0  0  0  0  0  0  0  0  0  0
    5.8983    0.6292    0.0000 C   0  0  0  0  0  0  0  0  0  0  0  0
    5.2663    0.0989    0.0000 C   0  0  0  0  0  0  0  0  0  0  0  0
    4.4911    0.3811    0.0000 C   0  0  0  0  0  0  0  0  0  0  0  0
    3.8591   -0.1492    0.0000 Cl  0  0  0  0  0  0  0  0  0  0  0  0
    4.3478    1.1935    0.0000 C   0  0  0  0  0  0  0  0  0  0  0  0
    3.5726    1.4757    0.0000 N   0  0  0  0  0  0  0  0  0  0  0  0
    2.9406    0.9454    0.0000 C   0  0  0  0  0  0  0  0  0  0  0  0
    2.5281    0.2309    0.0000 C   0  0  0  0  0  0  0  0  0  0  0  0
    3.3531    0.2309    0.0000 C   0  0  0  0  0  0  0  0  0  0  0  0
    2.3086    1.4757    0.0000 C   0  0  0  0  0  0  0  0  0  0  0  0
    1.6766    2.0060    0.0000 C   0  0  0  0  0  0  0  0  0  0  0  0
    2.8389    2.1077    0.0000 C   0  0  0  0  0  0  0  0  0  0  0  0
    1.7783    0.8437    0.0000 C   0  0  0  0  0  0  0  0  0  0  0  0
  1  2  1  0  0  0  0
  2  3  2  0  0  0  0
  2  4  1  0  0  0  0
  4  5  2  0  0  0  0
  5  6  1  0  0  0  0
  5  7  1  0  0  0  0
  7  8  2  0  0  0  0
  8  9  1  0  0  0  0
  9 10  1  0  0  0  0
  9 11  2  0  0  0  0
  4 11  1  0  0  0  0
 11 12  1  0  0  0  0
 12 13  1  0  0  0  0
 13 14  1  0  0  0  0
 14 15  1  0  0  0  0
 13 15  1  0  0  0  0
 13 16  1  0  0  0  0
 16 17  1  0  0  0  0
 16 18  1  0  0  0  0
 16 19  1  0  0  0  0
M  END
> <ID>
CPD_3147

$$$$
CPD_3152
  Mrv1822 09091914012D          

 17 18  0  0  0  0            999 V2000
    0.6126    0.0498    0.0000 C   0  0  0  0  0  0  0  0  0  0  0  0
    1.2445   -0.4805    0.0000 C   0  0  0  0  0  0  0  0  0  0  0  0
    0.7142   -1.1125    0.0000 C   0  0  0  0  0  0  0  0  0  0  0  0
    1.7748    0.1515    0.0000 C   0  0  0  0  0  0  0  0  0  0  0  0
    1.8765   -1.0108    0.0000 C   0  0  0  0  0  0  0  0  0  0  0  0
    2.2890   -1.7252    0.0000 C   0  0  0  0  0  0  0  0  0  0  0  0
    1.4640   -1.7252    0.0000 C   0  0  0  0  0  0  0  0  0  0  0  0
    2.5085   -0.4805    0.0000 N   0  0  0  0  0  0  0  0  0  0  0  0
    3.2838   -0.7626    0.0000 C   0  0  0  0  0  0  0  0  0  0  0  0
    3.9158   -0.2323    0.0000 N   0  0  0  0  0  0  0  0  0  0  0  0
    4.6910   -0.5145    0.0000 C   0  0  0  0  0  0  0  0  0  0  0  0
    4.8343   -1.3270    0.0000 C   0  0  0  0  0  0  0  0  0  0  0  0
    5.6095   -1.6091    0.0000 Br  0  0  0  0  0  0  0  0  0  0  0  0
    4.2023   -1.8573    0.0000 C   0  0  0  0  0  0  0  0  0  0  0  0
    3.4270   -1.5751    0.0000 C   0  0  0  0  0  0  0  0  0  0  0  0
    2.7950   -2.1054    0.0000 C   0  0  0  0  0  0  0  0  0  0  0  0
    2.1631   -2.6357    0.0000 N   0  0  0  0  0  0  0  0  0  0  0  0
  1  2  1  0  0  0  0
  2  3  1  0  0  0  0
  2  4  1  0  0  0  0
  2  5  1  0  0  0  0
  5  6  1  0  0  0  0
  6  7  1  0  0  0  0
  5  7  1  0  0  0  0
  5  8  1  0  0  0  0
  8  9  1  0  0  0  0
  9 10  2  0  0  0  0
 10 11  1  0  0  0  0
 11 12  2  0  0  0  0
 12 13  1  0  0  0  0
 12 14  1  0  0  0  0
 14 15  2  0  0  0  0
  9 15  1  0  0  0  0
 15 16  1  0  0  0  0
 16 17  3  0  0  0  0
M  END
> <ID>
CPD_3152

$$$$
CPD_3157
  Mrv1822 09091914012D          

 33 35  0  0  0  0            999 V2000
   -2.1434    1.2375    0.0000 C   0  0  0  0  0  0  0  0  0  0  0  0
   -1.4289    0.8250    0.0000 C   0  0  0  0  0  0  0  0  0  0  0  0
   -1.4289   -0.0000    0.0000 O   0  0  0  0  0  0  0  0  0  0  0  0
   -0.7145   -0.4125    0.0000 C   0  0  0  0  0  0  0  0  0  0  0  0
    0.0000   -0.0000    0.0000 O   0  0  0  0  0  0  0  0  0  0  0  0
   -0.7145   -1.2375    0.0000 C   0  0  0  0  0  0  0  0  0  0  0  0
    0.0000   -1.6500    0.0000 C   0  0  0  0  0  0  0  0  0  0  0  0
    0.7145   -1.2375    0.0000 C   0  0  0  0  0  0  0  0  0  0  0  0
    0.0000   -2.4750    0.0000 N   0  0  0  0  0  0  0  0  0  0  0  0
   -0.7145   -2.8875    0.0000 C   0  0  0  0  0  0  0  0  0  0  0  0
   -1.4289   -2.4750    0.0000 N   0  0  0  0  0  0  0  0  0  0  0  0
   -1.4289   -1.6500    0.0000 C   0  0  0  0  0  0  0  0  0  0  0  0
   -0.7145   -3.7125    0.0000 N   0  0  0  0  0  0  0  0  0  0  0  0
   -1.4289   -4.1250    0.0000 C   0  0  0  0  0  0  0  0  0  0  0  0
   -1.4289   -4.9500    0.0000 C   0  0  0  0  0  0  0  0  0  0  0  0
   -2.1434   -5.3625    0.0000 C   0  0  0  0  0  0  0  0  0  0  0  0
   -2.8579   -4.9500    0.0000 C   0  0  0  0  0  0  0  0  0  0  0  0
   -3.5724   -5.3625    0.0000 Cl  0  0  0  0  0  0  0  0  0  0  0  0
   -2.8579   -4.1250    0.0000 C   0  0  0  0  0  0  0  0  0  0  0  0
   -2.1434   -3.7125    0.0000 C   0  0  0  0  0  0  0  0  0  0  0  0
   -0.0000   -4.1250    0.0000 C   0  0  0  0  0  0  0  0  0  0  0  0
    0.7145   -3.7125    0.0000 C   0  0  0  0  0  0  0  0  0  0  0  0
    1.4289   -4.1250    0.0000 C   0  0  0  0  0  0  0  0  0  0  0  0
    1.4289   -4.9500    0.0000 C   0  0  0  0  0  0  0  0  0  0  0  0
    0.7145   -5.3625    0.0000 C   0  0  0  0  0  0  0  0  0  0  0  0
   -0.0000   -4.9500    0.0000 N   0  0  0  0  0  0  0  0  0  0  0  0
    2.1434   -5.3625    0.0000 C   0  0  0  0  0  0  0  0  0  0  0  0
    2.8579   -4.9500    0.0000 O   0  0  0  0  0  0  0  0  0  0  0  0
    2.1434   -6.1875    0.0000 O   0  0  0  0  0  0  0  0  0  0  0  0
    2.1434   -3.7125    0.0000 C   0  0  0  0  0  0  0  0  0  0  0  0
    2.8579   -3.3000    0.0000 F   0  0  0  0  0  0  0  0  0  0  0  0
    2.5559   -4.4270    0.0000 F   0  0  0  0  0  0  0  0  0  0  0  0
    1.7309   -2.9980    0.0000 F   0  0  0  0  0  0  0  0  0  0  0  0
  1  2  1  0  0  0  0
  2  3  1  0  0  0  0
  3  4  1  0  0  0  0
  4  5  2  0  0  0  0
  4  6  1  0  0  0  0
  6  7  2  0  0  0  0
  7  8  1  0  0  0  0
  7  9  1  0  0  0  0
  9 10  2  0  0  0  0
 10 11  1  0  0  0  0
 11 12  2  0  0  0  0
  6 12  1  0  0  0  0
 10 13  1  0  0  0  0
 13 14  1  0  0  0  0
 14 15  2  0  0  0  0
 15 16  1  0  0  0  0
 16 17  2  0  0  0  0
 17 18  1  0  0  0  0
 17 19  1  0  0  0  0
 19 20  2  0  0  0  0
 14 20  1  0  0  0  0
 13 21  1  0  0  0  0
 21 22  2  0  0  0  0
 22 23  1  0  0  0  0
 23 24  2  0  0  0  0
 24 25  1  0  0  0  0
 25 26  2  0  0  0  0
 21 26  1  0  0  0  0
 24 27  1  0  0  0  0
 27 28  1  0  0  0  0
 27 29  2  0  0  0  0
 23 30  1  0  0  0  0
 30 31  1  0  0  0  0
 30 32  1  0  0  0  0
 30 33  1  0  0  0  0
M  END
> <ID>
CPD_3157

$$$$
CPD_3162
  Mrv1822 09091914012D          

 33 35  0  0  0  0            999 V2000
    0.7145    1.2375    0.0000 C   0  0  0  0  0  0  0  0  0  0  0  0
    1.4289    0.8250    0.0000 C   0  0  0  0  0  0  0  0  0  0  0  0
    1.4289    0.0000    0.0000 O   0  0  0  0  0  0  0  0  0  0  0  0
    2.1434   -0.4125    0.0000 C   0  0  0  0  0  0  0  0  0  0  0  0
    2.8579    0.0000    0.0000 O   0  0  0  0  0  0  0  0  0  0  0  0
    2.1434   -1.2375    0.0000 C   0  0  0  0  0  0  0  0  0  0  0  0
    2.8579   -1.6500    0.0000 C   0  0  0  0  0  0  0  0  0  0  0  0
    3.5724   -1.2375    0.0000 C   0  0  0  0  0  0  0  0  0  0  0  0
    2.8579   -2.4750    0.0000 N   0  0  0  0  0  0  0  0  0  0  0  0
    2.1434   -2.8875    0.0000 C   0  0  0  0  0  0  0  0  0  0  0  0
    1.4289   -2.4750    0.0000 N   0  0  0  0  0  0  0  0  0  0  0  0
    1.4289   -1.6500    0.0000 C   0  0  0  0  0  0  0  0  0  0  0  0
    2.1434   -3.7125    0.0000 N   0  0  0  0  0  0  0  0  0  0  0  0
    2.8579   -4.1250    0.0000 C   0  0  0  0  0  0  0  0  0  0  0  0
    3.5724   -3.7125    0.0000 C   0  0  0  0  0  0  0  0  0  0  0  0
    4.2868   -4.1250    0.0000 C   0  0  0  0  0  0  0  0  0  0  0  0
    4.2868   -4.9500    0.0000 C   0  0  0  0  0  0  0  0  0  0  0  0
    5.0013   -5.3625    0.0000 Cl  0  0  0  0  0  0  0  0  0  0  0  0
    3.5724   -5.3625    0.0000 C   0  0  0  0  0  0  0  0  0  0  0  0
    2.8579   -4.9500    0.0000 C   0  0  0  0  0  0  0  0  0  0  0  0
    1.4289   -4.1250    0.0000 C   0  0  0  0  0  0  0  0  0  0  0  0
    1.4289   -4.9500    0.0000 C   0  0  0  0  0  0  0  0  0  0  0  0
    0.7145   -5.3625    0.0000 C   0  0  0  0  0  0  0  0  0  0  0  0
    0.7145   -6.1875    0.0000 N   0  0  0  0  0  0  0  0  0  0  0  0
   -0.0000   -6.6000    0.0000 C   0  0  0  0  0  0  0  0  0  0  0  0
   -0.7145   -6.1875    0.0000 O   0  0  0  0  0  0  0  0  0  0  0  0
   -0.0000   -7.4250    0.0000 C   0  0  0  0  0  0  0  0  0  0  0  0
   -0.0000   -8.2500    0.0000 C   0  0  0  0  0  0  0  0  0  0  0  0
   -0.8250   -7.4250    0.0000 C   0  0  0  0  0  0  0  0  0  0  0  0
    0.8250   -7.4250    0.0000 C   0  0  0  0  0  0  0  0  0  0  0  0
   -0.0000   -4.9500    0.0000 C   0  0  0  0  0  0  0  0  0  0  0  0
   -0.0000   -4.1250    0.0000 N   0  0  0  0  0  0  0  0  0  0  0  0
    0.7145   -3.7125    0.0000 C   0  0  0  0  0  0  0  0  0  0  0  0
  1  2  1  0  0  0  0
  2  3  1  0  0  0  0
  3  4  1  0  0  0  0
  4  5  2  0  0  0  0
  4  6  1  0  0  0  0
  6  7  2  0  0  0  0
  7  8  1  0  0  0  0
  7  9  1  0  0  0  0
  9 10  2  0  0  0  0
 10 11  1  0  0  0  0
 11 12  2  0  0  0  0
  6 12  1  0  0  0  0
 10 13  1  0  0  0  0
 13 14  1  0  0  0  0
 14 15  2  0  0  0  0
 15 16  1  0  0  0  0
 16 17  2  0  0  0  0
 17 18  1  0  0  0  0
 17 19  1  0  0  0  0
 19 20  2  0  0  0  0
 14 20  1  0  0  0  0
 13 21  1  0  0  0  0
 21 22  2  0  0  0  0
 22 23  1  0  0  0  0
 23 24  1  0  0  0  0
 24 25  1  0  0  0  0
 25 26  2  0  0  0  0
 25 27  1  0  0  0  0
 27 28  1  0  0  0  0
 27 29  1  0  0  0  0
 27 30  1  0  0  0  0
 23 31  2  0  0  0  0
 31 32  1  0  0  0  0
 32 33  2  0  0  0  0
 21 33  1  0  0  0  0
M  END
> <ID>
CPD_3162

$$$$
CPD_3167
  Mrv1822 09091914012D          

 34 37  0  0  0  0            999 V2000
   -6.0819   -5.0915    0.0000 C   0  0  0  0  0  0  0  0  0  0  0  0
   -5.8269   -4.3068    0.0000 C   0  0  0  0  0  0  0  0  0  0  0  0
   -6.3790   -3.6937    0.0000 C   0  0  0  0  0  0  0  0  0  0  0  0
   -5.0200   -4.1353    0.0000 N   0  0  0  0  0  0  0  0  0  0  0  0
   -4.7650   -3.3507    0.0000 C   0  0  0  0  0  0  0  0  0  0  0  0
   -5.3171   -2.7376    0.0000 O   0  0  0  0  0  0  0  0  0  0  0  0
   -3.9580   -3.1792    0.0000 C   0  0  0  0  0  0  0  0  0  0  0  0
   -3.7031   -2.3945    0.0000 C   0  0  0  0  0  0  0  0  0  0  0  0
   -2.8961   -2.2230    0.0000 C   0  0  0  0  0  0  0  0  0  0  0  0
   -2.3441   -2.8361    0.0000 N   0  0  0  0  0  0  0  0  0  0  0  0
   -2.5990   -3.6207    0.0000 C   0  0  0  0  0  0  0  0  0  0  0  0
   -3.4060   -3.7923    0.0000 C   0  0  0  0  0  0  0  0  0  0  0  0
   -1.5371   -2.6646    0.0000 C   0  0  0  0  0  0  0  0  0  0  0  0
   -1.2822   -1.8800    0.0000 N   0  0  0  0  0  0  0  0  0  0  0  0
   -0.4752   -1.7084    0.0000 N   0  0  0  0  0  0  0  0  0  0  0  0
    0.0768   -2.3215    0.0000 C   0  0  0  0  0  0  0  0  0  0  0  0
    0.8838   -2.1500    0.0000 N   0  0  0  0  0  0  0  0  0  0  0  0
    1.1387   -1.3654    0.0000 C   0  0  0  0  0  0  0  0  0  0  0  0
    0.6538   -0.6979    0.0000 C   0  0  0  0  0  0  0  0  0  0  0  0
   -0.1712   -0.6979    0.0000 O   0  0  0  0  0  0  0  0  0  0  0  0
    1.1387   -0.0305    0.0000 N   0  0  0  0  0  0  0  0  0  0  0  0
    0.8838    0.7541    0.0000 C   0  0  0  0  0  0  0  0  0  0  0  0
    1.9233   -0.2854    0.0000 C   0  0  0  0  0  0  0  0  0  0  0  0
    2.6378    0.1271    0.0000 C   0  0  0  0  0  0  0  0  0  0  0  0
    3.3523   -0.2854    0.0000 C   0  0  0  0  0  0  0  0  0  0  0  0
    3.3523   -1.1104    0.0000 C   0  0  0  0  0  0  0  0  0  0  0  0
    2.6378   -1.5229    0.0000 C   0  0  0  0  0  0  0  0  0  0  0  0
    1.9233   -1.1104    0.0000 C   0  0  0  0  0  0  0  0  0  0  0  0
    2.6378    0.9521    0.0000 C   0  0  0  0  0  0  0  0  0  0  0  0
    2.6378    1.7771    0.0000 F   0  0  0  0  0  0  0  0  0  0  0  0
    3.4628    0.9521    0.0000 F   0  0  0  0  0  0  0  0  0  0  0  0
    1.8128    0.9521    0.0000 F   0  0  0  0  0  0  0  0  0  0  0  0
   -0.1781   -3.1062    0.0000 C   0  0  0  0  0  0  0  0  0  0  0  0
   -0.9851   -3.2777    0.0000 C   0  0  0  0  0  0  0  0  0  0  0  0
  1  2  1  0  0  0  0
  2  3  1  0  0  0  0
  2  4  1  0  0  0  0
  4  5  1  0  0  0  0
  5  6  2  0  0  0  0
  5  7  1  0  0  0  0
  7  8  1  0  0  0  0
  8  9  1  0  0  0  0
  9 10  1  0  0  0  0
 10 11  1  0  0  0  0
 11 12  1  0  0  0  0
  7 12  1  0  0  0  0
 10 13  1  0  0  0  0
 13 14  2  0  0  0  0
 14 15  1  0  0  0  0
 15 16  2  0  0  0  0
 16 17  1  0  0  0  0
 17 18  1  0  0  0  0
 18 19  1  0  0  0  0
 19 20  2  0  0  0  0
 19 21  1  0  0  0  0
 21 22  1  0  0  0  0
 21 23  1  0  0  0  0
 23 24  2  0  0  0  0
 24 25  1  0  0  0  0
 25 26  2  0  0  0  0
 26 27  1  0  0  0  0
 27 28  2  0  0  0  0
 18 28  1  0  0  0  0
 23 28  1  0  0  0  0
 24 29  1  0  0  0  0
 29 30  1  0  0  0  0
 29 31  1  0  0  0  0
 29 32  1  0  0  0  0
 16 33  1  0  0  0  0
 33 34  2  0  0  0  0
 13 34  1  0  0  0  0
M  END
> <ID>
CPD_3167

$$$$
CPD_3172
  Mrv1822 09091914012D          

 32 35  0  0  0  0            999 V2000
    0.8838   -2.1500    0.0000 C   0  0  0  0  0  0  0  0  0  0  0  0
    1.1387   -1.3654    0.0000 N   0  0  0  0  0  0  0  0  0  0  0  0
    0.6538   -0.6979    0.0000 C   0  0  0  0  0  0  0  0  0  0  0  0
   -0.1712   -0.6979    0.0000 O   0  0  0  0  0  0  0  0  0  0  0  0
    1.1387   -0.0305    0.0000 C   0  0  0  0  0  0  0  0  0  0  0  0
    0.8838    0.7541    0.0000 N   0  0  0  0  0  0  0  0  0  0  0  0
    0.0768    0.9256    0.0000 C   0  0  0  0  0  0  0  0  0  0  0  0
   -0.4752    0.3126    0.0000 C   0  0  0  0  0  0  0  0  0  0  0  0
   -1.2822    0.4841    0.0000 C   0  0  0  0  0  0  0  0  0  0  0  0
   -1.5371    1.2687    0.0000 C   0  0  0  0  0  0  0  0  0  0  0  0
   -0.9851    1.8818    0.0000 C   0  0  0  0  0  0  0  0  0  0  0  0
   -0.1781    1.7103    0.0000 C   0  0  0  0  0  0  0  0  0  0  0  0
   -2.3441    1.4402    0.0000 C   0  0  0  0  0  0  0  0  0  0  0  0
   -2.8961    0.8271    0.0000 O   0  0  0  0  0  0  0  0  0  0  0  0
   -2.5990    2.2248    0.0000 N   0  0  0  0  0  0  0  0  0  0  0  0
   -3.4060    2.3964    0.0000 C   0  0  0  0  0  0  0  0  0  0  0  0
   -3.9580    1.7833    0.0000 C   0  0  0  0  0  0  0  0  0  0  0  0
   -3.7031    0.9987    0.0000 Cl  0  0  0  0  0  0  0  0  0  0  0  0
   -4.7650    1.9548    0.0000 C   0  0  0  0  0  0  0  0  0  0  0  0
   -5.0200    2.7394    0.0000 C   0  0  0  0  0  0  0  0  0  0  0  0
   -4.4679    3.3525    0.0000 C   0  0  0  0  0  0  0  0  0  0  0  0
   -3.6610    3.1810    0.0000 C   0  0  0  0  0  0  0  0  0  0  0  0
    1.9233   -0.2854    0.0000 C   0  0  0  0  0  0  0  0  0  0  0  0
    2.6378    0.1271    0.0000 C   0  0  0  0  0  0  0  0  0  0  0  0
    3.3523   -0.2854    0.0000 C   0  0  0  0  0  0  0  0  0  0  0  0
    3.3523   -1.1104    0.0000 C   0  0  0  0  0  0  0  0  0  0  0  0
    2.6378   -1.5229    0.0000 C   0  0  0  0  0  0  0  0  0  0  0  0
    1.9233   -1.1104    0.0000 C   0  0  0  0  0  0  0  0  0  0  0  0
    2.6378   -2.3479    0.0000 C   0  0  0  0  0  0  0  0  0  0  0  0
    2.6378   -3.1729    0.0000 F   0  0  0  0  0  0  0  0  0  0  0  0
    1.8128   -2.3479    0.0000 F   0  0  0  0  0  0  0  0  0  0  0  0
    3.4628   -2.3479    0.0000 F   0  0  0  0  0  0  0  0  0  0  0  0
  1  2  1  0  0  0  0
  2  3  1  0  0  0  0
  3  4  2  0  0  0  0
  3  5  1  0  0  0  0
  5  6  1  0  0  0  0
  6  7  1  0  0  0  0
  7  8  2  0  0  0  0
  8  9  1  0  0  0  0
  9 10  2  0  0  0  0
 10 11  1  0  0  0  0
 11 12  2  0  0  0  0
  7 12  1  0  0  0  0
 10 13  1  0  0  0  0
 13 14  2  0  0  0  0
 13 15  1  0  0  0  0
 15 16  1  0  0  0  0
 16 17  2  0  0  0  0
 17 18  1  0  0  0  0
 17 19  1  0  0  0  0
 19 20  2  0  0  0  0
 20 21  1  0  0  0  0
 21 22  2  0  0  0  0
 16 22  1  0  0  0  0
  5 23  1  0  0  0  0
 23 24  2  0  0  0  0
 24 25  1  0  0  0  0
 25 26  2  0  0  0  0
 26 27  1  0  0  0  0
 27 28  2  0  0  0  0
  2 28  1  0  0  0  0
 23 28  1  0  0  0  0
 27 29  1  0  0  0  0
 29 30  1  0  0  0  0
 29 31  1  0  0  0  0
 29 32  1  0  0  0  0
M  END
> <ID>
CPD_3172

$$$$
CPD_3177
  Mrv1822 09091914012D          

 27 29  0  0  0  0            999 V2000
    0.8838   -2.1500    0.0000 C   0  0  0  0  0  0  0  0  0  0  0  0
    1.1387   -1.3654    0.0000 N   0  0  0  0  0  0  0  0  0  0  0  0
    0.6538   -0.6979    0.0000 C   0  0  0  0  0  0  0  0  0  0  0  0
   -0.1712   -0.6979    0.0000 O   0  0  0  0  0  0  0  0  0  0  0  0
    1.1387   -0.0305    0.0000 C   0  0  0  0  0  0  0  0  0  0  0  0
    0.8838    0.7541    0.0000 N   0  0  0  0  0  0  0  0  0  0  0  0
    0.0768    0.9256    0.0000 C   0  0  0  0  0  0  0  0  0  0  0  0
   -0.4752    0.3126    0.0000 C   0  0  0  0  0  0  0  0  0  0  0  0
   -1.2822    0.4841    0.0000 C   0  0  0  0  0  0  0  0  0  0  0  0
   -1.8342   -0.1290    0.0000 Cl  0  0  0  0  0  0  0  0  0  0  0  0
   -1.5371    1.2687    0.0000 C   0  0  0  0  0  0  0  0  0  0  0  0
   -2.3441    1.4402    0.0000 C   0  0  0  0  0  0  0  0  0  0  0  0
   -2.5990    2.2248    0.0000 C   0  0  0  0  0  0  0  0  0  0  0  0
   -3.4060    2.3964    0.0000 O   0  0  0  0  0  0  0  0  0  0  0  0
   -2.0470    2.8379    0.0000 O   0  0  0  0  0  0  0  0  0  0  0  0
   -0.9851    1.8818    0.0000 C   0  0  0  0  0  0  0  0  0  0  0  0
   -0.1781    1.7103    0.0000 C   0  0  0  0  0  0  0  0  0  0  0  0
    1.9233   -0.2854    0.0000 C   0  0  0  0  0  0  0  0  0  0  0  0
    2.6378    0.1271    0.0000 C   0  0  0  0  0  0  0  0  0  0  0  0
    3.3523   -0.2854    0.0000 C   0  0  0  0  0  0  0  0  0  0  0  0
    3.3523   -1.1104    0.0000 C   0  0  0  0  0  0  0  0  0  0  0  0
    2.6378   -1.5229    0.0000 C   0  0  0  0  0  0  0  0  0  0  0  0
    1.9233   -1.1104    0.0000 C   0  0  0  0  0  0  0  0  0  0  0  0
    2.6378   -2.3479    0.0000 C   0  0  0  0  0  0  0  0  0  0  0  0
    2.6378   -3.1729    0.0000 F   0  0  0  0  0  0  0  0  0  0  0  0
    1.8128   -2.3479    0.0000 F   0  0  0  0  0  0  0  0  0  0  0  0
    3.4628   -2.3479    0.0000 F   0  0  0  0  0  0  0  0  0  0  0  0
  1  2  1  0  0  0  0
  2  3  1  0  0  0  0
  3  4  2  0  0  0  0
  3  5  1  0  0  0  0
  5  6  1  0  0  0  0
  6  7  1  0  0  0  0
  7  8  2  0  0  0  0
  8  9  1  0  0  0  0
  9 10  1  0  0  0  0
  9 11  2  0  0  0  0
 11 12  1  0  0  0  0
 12 13  1  0  0  0  0
 13 14  1  0  0  0  0
 13 15  2  0  0  0  0
 11 16  1  0  0  0  0
 16 17  2  0  0  0  0
  7 17  1  0  0  0  0
  5 18  1  0  0  0  0
 18 19  2  0  0  0  0
 19 20  1  0  0  0  0
 20 21  2  0  0  0  0
 21 22  1  0  0  0  0
 22 23  2  0  0  0  0
  2 23  1  0  0  0  0
 18 23  1  0  0  0  0
 22 24  1  0  0  0  0
 24 25  1  0  0  0  0
 24 26  1  0  0  0  0
 24 27  1  0  0  0  0
M  END
> <ID>
CPD_3177

$$$$
CPD_3182
  Mrv1822 09091914012D          

 38 43  0  0  0  0            999 V2000
   -0.3984    0.7541    0.0000 C   0  0  0  0  0  0  0  0  0  0  0  0
   -0.1435   -0.0305    0.0000 N   0  0  0  0  0  0  0  0  0  0  0  0
   -0.6284   -0.6979    0.0000 N   0  0  0  0  0  0  0  0  0  0  0  0
   -0.1435   -1.3654    0.0000 C   0  0  0  0  0  0  0  0  0  0  0  0
   -0.3984   -2.1500    0.0000 C   0  0  0  0  0  0  0  0  0  0  0  0
    0.0865   -2.8174    0.0000 N   0  0  0  0  0  0  0  0  0  0  0  0
   -0.3984   -3.4849    0.0000 C   0  0  0  0  0  0  0  0  0  0  0  0
   -1.1831   -3.2299    0.0000 N   0  0  0  0  0  0  0  0  0  0  0  0
   -1.1831   -2.4049    0.0000 O   0  0  0  0  0  0  0  0  0  0  0  0
   -0.1435   -4.2695    0.0000 C   0  0  0  0  0  0  0  0  0  0  0  0
    0.6635   -4.4410    0.0000 C   0  0  0  0  0  0  0  0  0  0  0  0
    0.9184   -5.2257    0.0000 C   0  0  0  0  0  0  0  0  0  0  0  0
    0.3664   -5.8387    0.0000 C   0  0  0  0  0  0  0  0  0  0  0  0
   -0.4406   -5.6672    0.0000 C   0  0  0  0  0  0  0  0  0  0  0  0
   -0.6955   -4.8826    0.0000 C   0  0  0  0  0  0  0  0  0  0  0  0
    0.6411   -1.1104    0.0000 C   0  0  0  0  0  0  0  0  0  0  0  0
    0.6411   -0.2854    0.0000 C   0  0  0  0  0  0  0  0  0  0  0  0
    1.3556    0.1271    0.0000 C   0  0  0  0  0  0  0  0  0  0  0  0
    2.0701   -0.2854    0.0000 C   0  0  0  0  0  0  0  0  0  0  0  0
    2.0701   -1.1104    0.0000 N   0  0  0  0  0  0  0  0  0  0  0  0
    1.3556   -1.5229    0.0000 C   0  0  0  0  0  0  0  0  0  0  0  0
    2.7845   -1.5229    0.0000 C   0  0  0  0  0  0  0  0  0  0  0  0
    3.4990   -1.1104    0.0000 C   0  0  0  0  0  0  0  0  0  0  0  0
    4.2135   -1.5229    0.0000 C   0  0  0  0  0  0  0  0  0  0  0  0
    4.2135   -2.3479    0.0000 C   0  0  0  0  0  0  0  0  0  0  0  0
    3.4990   -2.7604    0.0000 C   0  0  0  0  0  0  0  0  0  0  0  0
    2.7845   -2.3479    0.0000 C   0  0  0  0  0  0  0  0  0  0  0  0
    3.4990   -0.2854    0.0000 C   0  0  0  0  0  0  0  0  0  0  0  0
    4.2135    0.1271    0.0000 O   0  0  0  0  0  0  0  0  0  0  0  0
    2.7845    0.1271    0.0000 N   0  0  0  0  0  0  0  0  0  0  0  0
    2.7845    0.9521    0.0000 C   0  0  0  0  0  0  0  0  0  0  0  0
    2.0701    1.3646    0.0000 C   0  0  0  0  0  0  0  0  0  0  0  0
    2.0701    2.1896    0.0000 C   0  0  0  0  0  0  0  0  0  0  0  0
    1.3556    2.6021    0.0000 Cl  0  0  0  0  0  0  0  0  0  0  0  0
    2.7845    2.6021    0.0000 C   0  0  0  0  0  0  0  0  0  0  0  0
    2.7845    3.4271    0.0000 F   0  0  0  0  0  0  0  0  0  0  0  0
    3.4990    2.1896    0.0000 C   0  0  0  0  0  0  0  0  0  0  0  0
    3.4990    1.3646    0.0000 C   0  0  0  0  0  0  0  0  0  0  0  0
  1  2  1  0  0  0  0
  2  3  1  0  0  0  0
  3  4  2  0  0  0  0
  4  5  1  0  0  0  0
  5  6  2  0  0  0  0
  6  7  1  0  0  0  0
  7  8  2  0  0  0  0
  8  9  1  0  0  0  0
  5  9  1  0  0  0  0
  7 10  1  0  0  0  0
 10 11  2  0  0  0  0
 11 12  1  0  0  0  0
 12 13  2  0  0  0  0
 13 14  1  0  0  0  0
 14 15  2  0  0  0  0
 10 15  1  0  0  0  0
  4 16  1  0  0  0  0
 16 17  2  0  0  0  0
  2 17  1  0  0  0  0
 17 18  1  0  0  0  0
 18 19  1  0  0  0  0
 19 20  1  0  0  0  0
 20 21  1  0  0  0  0
 16 21  1  0  0  0  0
 20 22  1  0  0  0  0
 22 23  2  0  0  0  0
 23 24  1  0  0  0  0
 24 25  2  0  0  0  0
 25 26  1  0  0  0  0
 26 27  2  0  0  0  0
 22 27  1  0  0  0  0
 23 28  1  0  0  0  0
 28 29  2  0  0  0  0
 28 30  1  0  0  0  0
 30 31  1  0  0  0  0
 31 32  2  0  0  0  0
 32 33  1  0  0  0  0
 33 34  1  0  0  0  0
 33 35  2  0  0  0  0
 35 36  1  0  0  0  0
 35 37  1  0  0  0  0
 37 38  2  0  0  0  0
 31 38  1  0  0  0  0
M  END
> <ID>
CPD_3182

$$$$
CPD_3187
  Mrv1822 09091914012D          

 35 39  0  0  0  0            999 V2000
    5.4957    5.6479    0.0000 C   0  0  0  0  0  0  0  0  0  0  0  0
    5.4957    4.8229    0.0000 C   0  0  0  0  0  0  0  0  0  0  0  0
    6.2102    4.4104    0.0000 C   0  0  0  0  0  0  0  0  0  0  0  0
    6.2102    3.5854    0.0000 O   0  0  0  0  0  0  0  0  0  0  0  0
    5.4957    3.1729    0.0000 C   0  0  0  0  0  0  0  0  0  0  0  0
    5.4957    2.3479    0.0000 C   0  0  0  0  0  0  0  0  0  0  0  0
    4.7812    1.9354    0.0000 C   0  0  0  0  0  0  0  0  0  0  0  0
    4.0668    2.3479    0.0000 C   0  0  0  0  0  0  0  0  0  0  0  0
    4.0668    3.1729    0.0000 C   0  0  0  0  0  0  0  0  0  0  0  0
    4.7812    3.5854    0.0000 C   0  0  0  0  0  0  0  0  0  0  0  0
    4.7812    4.4104    0.0000 F   0  0  0  0  0  0  0  0  0  0  0  0
    3.3523    1.9354    0.0000 N   0  0  0  0  0  0  0  0  0  0  0  0
    3.3523    1.1104    0.0000 C   0  0  0  0  0  0  0  0  0  0  0  0
    2.6378    0.6979    0.0000 C   0  0  0  0  0  0  0  0  0  0  0  0
    1.9233    1.1104    0.0000 C   0  0  0  0  0  0  0  0  0  0  0  0
    1.9233    1.9354    0.0000 C   0  0  0  0  0  0  0  0  0  0  0  0
    2.6378    2.3479    0.0000 C   0  0  0  0  0  0  0  0  0  0  0  0
    1.1387    2.1904    0.0000 C   0  0  0  0  0  0  0  0  0  0  0  0
    0.6538    1.5229    0.0000 N   0  0  0  0  0  0  0  0  0  0  0  0
    1.1387    0.8555    0.0000 N   0  0  0  0  0  0  0  0  0  0  0  0
    0.8838    0.0709    0.0000 C   0  0  0  0  0  0  0  0  0  0  0  0
    0.8838    2.9750    0.0000 C   0  0  0  0  0  0  0  0  0  0  0  0
    0.0992    3.2299    0.0000 N   0  0  0  0  0  0  0  0  0  0  0  0
    0.0992    4.0549    0.0000 C   0  0  0  0  0  0  0  0  0  0  0  0
    0.8838    4.3099    0.0000 N   0  0  0  0  0  0  0  0  0  0  0  0
    1.3687    3.6424    0.0000 O   0  0  0  0  0  0  0  0  0  0  0  0
   -0.5683    4.5399    0.0000 C   0  0  0  0  0  0  0  0  0  0  0  0
   -1.3220    4.2043    0.0000 C   0  0  0  0  0  0  0  0  0  0  0  0
   -1.9894    4.6892    0.0000 C   0  0  0  0  0  0  0  0  0  0  0  0
   -1.9032    5.5097    0.0000 C   0  0  0  0  0  0  0  0  0  0  0  0
   -1.1495    5.8453    0.0000 C   0  0  0  0  0  0  0  0  0  0  0  0
   -0.4820    5.3603    0.0000 C   0  0  0  0  0  0  0  0  0  0  0  0
    6.9246    4.8229    0.0000 C   0  0  0  0  0  0  0  0  0  0  0  0
    7.6391    4.4104    0.0000 O   0  0  0  0  0  0  0  0  0  0  0  0
    6.9246    5.6479    0.0000 O   0  0  0  0  0  0  0  0  0  0  0  0
  1  2  1  0  0  0  0
  2  3  1  0  0  0  0
  3  4  1  0  0  0  0
  4  5  1  0  0  0  0
  5  6  2  0  0  0  0
  6  7  1  0  0  0  0
  7  8  2  0  0  0  0
  8  9  1  0  0  0  0
  9 10  2  0  0  0  0
  5 10  1  0  0  0  0
 10 11  1  0  0  0  0
  8 12  1  0  0  0  0
 12 13  1  0  0  0  0
 13 14  1  0  0  0  0
 14 15  1  0  0  0  0
 15 16  2  0  0  0  0
 16 17  1  0  0  0  0
 12 17  1  0  0  0  0
 16 18  1  0  0  0  0
 18 19  2  0  0  0  0
 19 20  1  0  0  0  0
 15 20  1  0  0  0  0
 20 21  1  0  0  0  0
 18 22  1  0  0  0  0
 22 23  2  0  0  0  0
 23 24  1  0  0  0  0
 24 25  2  0  0  0  0
 25 26  1  0  0  0  0
 22 26  1  0  0  0  0
 24 27  1  0  0  0  0
 27 28  2  0  0  0  0
 28 29  1  0  0  0  0
 29 30  2  0  0  0  0
 30 31  1  0  0  0  0
 31 32  2  0  0  0  0
 27 32  1  0  0  0  0
  3 33  1  0  0  0  0
 33 34  1  0  0  0  0
 33 35  2  0  0  0  0
M  END
> <ID>
CPD_3187

$$$$
CPD_3192
  Mrv1822 09091914012D          

 35 39  0  0  0  0            999 V2000
   -0.1712   -3.5558    0.0000 C   0  0  0  0  0  0  0  0  0  0  0  0
   -0.5837   -4.2703    0.0000 O   0  0  0  0  0  0  0  0  0  0  0  0
   -1.4087   -4.2703    0.0000 C   0  0  0  0  0  0  0  0  0  0  0  0
   -1.8212   -4.9848    0.0000 C   0  0  0  0  0  0  0  0  0  0  0  0
   -2.6462   -4.9848    0.0000 C   0  0  0  0  0  0  0  0  0  0  0  0
   -3.0587   -4.2703    0.0000 C   0  0  0  0  0  0  0  0  0  0  0  0
   -2.6462   -3.5558    0.0000 C   0  0  0  0  0  0  0  0  0  0  0  0
   -1.8212   -3.5558    0.0000 C   0  0  0  0  0  0  0  0  0  0  0  0
   -1.4087   -2.8414    0.0000 N   0  0  0  0  0  0  0  0  0  0  0  0
   -1.8212   -2.1269    0.0000 C   0  0  0  0  0  0  0  0  0  0  0  0
   -1.4087   -1.4124    0.0000 C   0  0  0  0  0  0  0  0  0  0  0  0
   -0.5837   -1.4124    0.0000 N   0  0  0  0  0  0  0  0  0  0  0  0
   -0.1712   -2.1269    0.0000 C   0  0  0  0  0  0  0  0  0  0  0  0
   -0.5837   -2.8414    0.0000 C   0  0  0  0  0  0  0  0  0  0  0  0
   -0.1712   -0.6979    0.0000 C   0  0  0  0  0  0  0  0  0  0  0  0
   -0.5837    0.0165    0.0000 O   0  0  0  0  0  0  0  0  0  0  0  0
    0.6538   -0.6979    0.0000 C   0  0  0  0  0  0  0  0  0  0  0  0
    1.1387   -0.0305    0.0000 C   0  0  0  0  0  0  0  0  0  0  0  0
    1.9233   -0.2854    0.0000 C   0  0  0  0  0  0  0  0  0  0  0  0
    2.6378    0.1271    0.0000 C   0  0  0  0  0  0  0  0  0  0  0  0
    3.3523   -0.2854    0.0000 C   0  0  0  0  0  0  0  0  0  0  0  0
    3.3523   -1.1104    0.0000 C   0  0  0  0  0  0  0  0  0  0  0  0
    2.6378   -1.5229    0.0000 C   0  0  0  0  0  0  0  0  0  0  0  0
    1.9233   -1.1104    0.0000 C   0  0  0  0  0  0  0  0  0  0  0  0
    1.1387   -1.3654    0.0000 N   0  0  0  0  0  0  0  0  0  0  0  0
    0.8838   -2.1500    0.0000 C   0  0  0  0  0  0  0  0  0  0  0  0
   -3.8837   -4.2703    0.0000 C   0  0  0  0  0  0  0  0  0  0  0  0
   -4.2962   -4.9848    0.0000 C   0  0  0  0  0  0  0  0  0  0  0  0
   -5.1212   -4.9848    0.0000 C   0  0  0  0  0  0  0  0  0  0  0  0
   -5.5337   -4.2703    0.0000 C   0  0  0  0  0  0  0  0  0  0  0  0
   -5.1212   -3.5558    0.0000 C   0  0  0  0  0  0  0  0  0  0  0  0
   -4.2962   -3.5558    0.0000 C   0  0  0  0  0  0  0  0  0  0  0  0
   -5.5337   -5.6992    0.0000 C   0  0  0  0  0  0  0  0  0  0  0  0
   -5.1212   -6.4137    0.0000 O   0  0  0  0  0  0  0  0  0  0  0  0
   -6.3587   -5.6992    0.0000 O   0  0  0  0  0  0  0  0  0  0  0  0
  1  2  1  0  0  0  0
  2  3  1  0  0  0  0
  3  4  2  0  0  0  0
  4  5  1  0  0  0  0
  5  6  2  0  0  0  0
  6  7  1  0  0  0  0
  7  8  2  0  0  0  0
  3  8  1  0  0  0  0
  8  9  1  0  0  0  0
  9 10  1  0  0  0  0
 10 11  1  0  0  0  0
 11 12  1  0  0  0  0
 12 13  1  0  0  0  0
 13 14  1  0  0  0  0
  9 14  1  0  0  0  0
 12 15  1  0  0  0  0
 15 16  2  0  0  0  0
 15 17  1  0  0  0  0
 17 18  2  0  0  0  0
 18 19  1  0  0  0  0
 19 20  2  0  0  0  0
 20 21  1  0  0  0  0
 21 22  2  0  0  0  0
 22 23  1  0  0  0  0
 23 24  2  0  0  0  0
 19 24  1  0  0  0  0
 24 25  1  0  0  0  0
 17 25  1  0  0  0  0
 25 26  1  0  0  0  0
  6 27  1  0  0  0  0
 27 28  2  0  0  0  0
 28 29  1  0  0  0  0
 29 30  2  0  0  0  0
 30 31  1  0  0  0  0
 31 32  2  0  0  0  0
 27 32  1  0  0  0  0
 29 33  1  0  0  0  0
 33 34  1  0  0  0  0
 33 35  2  0  0  0  0
M  END
> <ID>
CPD_3192

$$$$
CPD_3197
  Mrv1822 09091914012D          

 28 32  0  0  0  0            999 V2000
    6.5676   -1.2696    0.0000 C   0  0  0  0  0  0  0  0  0  0  0  0
    6.3961   -0.4626    0.0000 N   0  0  0  0  0  0  0  0  0  0  0  0
    5.6424   -0.1271    0.0000 C   0  0  0  0  0  0  0  0  0  0  0  0
    5.7286    0.6934    0.0000 C   0  0  0  0  0  0  0  0  0  0  0  0
    6.5356    0.8650    0.0000 C   0  0  0  0  0  0  0  0  0  0  0  0
    6.9481    1.5794    0.0000 C   0  0  0  0  0  0  0  0  0  0  0  0
    7.7731    1.5794    0.0000 C   0  0  0  0  0  0  0  0  0  0  0  0
    8.1856    0.8650    0.0000 C   0  0  0  0  0  0  0  0  0  0  0  0
    7.7731    0.1505    0.0000 C   0  0  0  0  0  0  0  0  0  0  0  0
    6.9481    0.1505    0.0000 C   0  0  0  0  0  0  0  0  0  0  0  0
    4.9279   -0.5396    0.0000 C   0  0  0  0  0  0  0  0  0  0  0  0
    4.9279   -1.3646    0.0000 O   0  0  0  0  0  0  0  0  0  0  0  0
    4.2135   -0.1271    0.0000 N   0  0  0  0  0  0  0  0  0  0  0  0
    3.4990   -0.5396    0.0000 C   0  0  0  0  0  0  0  0  0  0  0  0
    2.7845   -0.1271    0.0000 C   0  0  0  0  0  0  0  0  0  0  0  0
    2.7845    0.6979    0.0000 N   0  0  0  0  0  0  0  0  0  0  0  0
    3.4990    1.1104    0.0000 C   0  0  0  0  0  0  0  0  0  0  0  0
    4.2135    0.6979    0.0000 C   0  0  0  0  0  0  0  0  0  0  0  0
    2.0701    1.1104    0.0000 C   0  0  0  0  0  0  0  0  0  0  0  0
    1.3556    0.6979    0.0000 N   0  0  0  0  0  0  0  0  0  0  0  0
    0.6411    1.1104    0.0000 C   0  0  0  0  0  0  0  0  0  0  0  0
    0.6411    1.9354    0.0000 C   0  0  0  0  0  0  0  0  0  0  0  0
   -0.1435    2.1904    0.0000 S   0  0  0  0  0  0  0  0  0  0  0  0
   -0.6284    1.5229    0.0000 C   0  0  0  0  0  0  0  0  0  0  0  0
   -0.1435    0.8555    0.0000 C   0  0  0  0  0  0  0  0  0  0  0  0
    1.3556    2.3479    0.0000 C   0  0  0  0  0  0  0  0  0  0  0  0
    1.3556    3.1729    0.0000 O   0  0  0  0  0  0  0  0  0  0  0  0
    2.0701    1.9354    0.0000 N   0  0  0  0  0  0  0  0  0  0  0  0
  1  2  1  0  0  0  0
  2  3  1  0  0  0  0
  3  4  2  0  0  0  0
  4  5  1  0  0  0  0
  5  6  2  0  0  0  0
  6  7  1  0  0  0  0
  7  8  2  0  0  0  0
  8  9  1  0  0  0  0
  9 10  2  0  0  0  0
  2 10  1  0  0  0  0
  5 10  1  0  0  0  0
  3 11  1  0  0  0  0
 11 12  2  0  0  0  0
 11 13  1  0  0  0  0
 13 14  1  0  0  0  0
 14 15  1  0  0  0  0
 15 16  1  0  0  0  0
 16 17  1  0  0  0  0
 17 18  1  0  0  0  0
 13 18  1  0  0  0  0
 16 19  1  0  0  0  0
 19 20  2  0  0  0  0
 20 21  1  0  0  0  0
 21 22  2  0  0  0  0
 22 23  1  0  0  0  0
 23 24  1  0  0  0  0
 24 25  2  0  0  0  0
 21 25  1  0  0  0  0
 22 26  1  0  0  0  0
 26 27  2  0  0  0  0
 26 28  1  0  0  0  0
 19 28  1  0  0  0  0
M  END
> <ID>
CPD_3197

$$$$
CPD_3202
  Mrv1822 09091914012D          

 32 36  0  0  0  0            999 V2000
    7.9806    0.6791    0.0000 C   0  0  0  0  0  0  0  0  0  0  0  0
    7.6451   -0.0746    0.0000 N   0  0  0  0  0  0  0  0  0  0  0  0
    6.8246   -0.1608    0.0000 C   0  0  0  0  0  0  0  0  0  0  0  0
    6.3397    0.5066    0.0000 C   0  0  0  0  0  0  0  0  0  0  0  0
    5.5192    0.4204    0.0000 C   0  0  0  0  0  0  0  0  0  0  0  0
    5.1067   -0.2941    0.0000 N   0  0  0  0  0  0  0  0  0  0  0  0
    4.2997   -0.1225    0.0000 O   0  0  0  0  0  0  0  0  0  0  0  0
    4.2135    0.6979    0.0000 C   0  0  0  0  0  0  0  0  0  0  0  0
    3.4990    1.1104    0.0000 C   0  0  0  0  0  0  0  0  0  0  0  0
    2.7845    0.6979    0.0000 O   0  0  0  0  0  0  0  0  0  0  0  0
    2.0701    1.1104    0.0000 C   0  0  0  0  0  0  0  0  0  0  0  0
    1.3556    0.6979    0.0000 C   0  0  0  0  0  0  0  0  0  0  0  0
    0.6411    1.1104    0.0000 C   0  0  0  0  0  0  0  0  0  0  0  0
    0.6411    1.9354    0.0000 C   0  0  0  0  0  0  0  0  0  0  0  0
   -0.1435    2.1904    0.0000 C   0  0  0  0  0  0  0  0  0  0  0  0
   -0.6284    1.5229    0.0000 C   0  0  0  0  0  0  0  0  0  0  0  0
   -0.1435    0.8555    0.0000 C   0  0  0  0  0  0  0  0  0  0  0  0
    1.3556    2.3479    0.0000 C   0  0  0  0  0  0  0  0  0  0  0  0
    2.0701    1.9354    0.0000 C   0  0  0  0  0  0  0  0  0  0  0  0
    4.9671    1.0335    0.0000 N   0  0  0  0  0  0  0  0  0  0  0  0
    8.1300   -0.7420    0.0000 C   0  0  0  0  0  0  0  0  0  0  0  0
    8.9505   -0.6558    0.0000 C   0  0  0  0  0  0  0  0  0  0  0  0
    9.4354   -1.3232    0.0000 C   0  0  0  0  0  0  0  0  0  0  0  0
   10.2559   -1.2370    0.0000 C   0  0  0  0  0  0  0  0  0  0  0  0
   10.7408   -1.9044    0.0000 N   0  0  0  0  0  0  0  0  0  0  0  0
   11.5658   -1.9044    0.0000 C   0  0  0  0  0  0  0  0  0  0  0  0
   11.8207   -2.6890    0.0000 C   0  0  0  0  0  0  0  0  0  0  0  0
   11.1533   -3.1740    0.0000 C   0  0  0  0  0  0  0  0  0  0  0  0
   10.4859   -2.6890    0.0000 C   0  0  0  0  0  0  0  0  0  0  0  0
    9.0998   -2.0769    0.0000 C   0  0  0  0  0  0  0  0  0  0  0  0
    8.2793   -2.1631    0.0000 C   0  0  0  0  0  0  0  0  0  0  0  0
    7.7944   -1.4957    0.0000 C   0  0  0  0  0  0  0  0  0  0  0  0
  1  2  1  0  0  0  0
  2  3  1  0  0  0  0
  3  4  1  0  0  0  0
  4  5  1  0  0  0  0
  5  6  2  0  0  0  0
  6  7  1  0  0  0  0
  7  8  1  0  0  0  0
  8  9  1  0  0  0  0
  9 10  1  0  0  0  0
 10 11  1  0  0  0  0
 11 12  2  0  0  0  0
 12 13  1  0  0  0  0
 13 14  2  0  0  0  0
 14 15  1  0  0  0  0
 15 16  1  0  0  0  0
 16 17  1  0  0  0  0
 13 17  1  0  0  0  0
 14 18  1  0  0  0  0
 18 19  2  0  0  0  0
 11 19  1  0  0  0  0
  8 20  2  0  0  0  0
  5 20  1  0  0  0  0
  2 21  1  0  0  0  0
 21 22  2  0  0  0  0
 22 23  1  0  0  0  0
 23 24  1  0  0  0  0
 24 25  1  0  0  0  0
 25 26  1  0  0  0  0
 26 27  1  0  0  0  0
 27 28  1  0  0  0  0
 28 29  1  0  0  0  0
 25 29  1  0  0  0  0
 23 30  2  0  0  0  0
 30 31  1  0  0  0  0
 31 32  2  0  0  0  0
 21 32  1  0  0  0  0
M  END
> <ID>
CPD_3202

$$$$
CPD_3207
  Mrv1822 09091914012D          

 31 34  0  0  0  0            999 V2000
   10.8902   -3.3255    0.0000 C   0  0  0  0  0  0  0  0  0  0  0  0
   10.4052   -2.6581    0.0000 O   0  0  0  0  0  0  0  0  0  0  0  0
    9.5848   -2.7443    0.0000 C   0  0  0  0  0  0  0  0  0  0  0  0
    9.2492   -3.4980    0.0000 O   0  0  0  0  0  0  0  0  0  0  0  0
    9.0998   -2.0769    0.0000 C   0  0  0  0  0  0  0  0  0  0  0  0
    8.2793   -2.1631    0.0000 N   0  0  0  0  0  0  0  0  0  0  0  0
    7.7944   -1.4957    0.0000 C   0  0  0  0  0  0  0  0  0  0  0  0
    8.1300   -0.7420    0.0000 C   0  0  0  0  0  0  0  0  0  0  0  0
    8.9505   -0.6558    0.0000 C   0  0  0  0  0  0  0  0  0  0  0  0
    9.4354   -1.3232    0.0000 C   0  0  0  0  0  0  0  0  0  0  0  0
   10.2559   -1.2370    0.0000 F   0  0  0  0  0  0  0  0  0  0  0  0
    7.6451   -0.0746    0.0000 N   0  0  0  0  0  0  0  0  0  0  0  0
    7.9806    0.6791    0.0000 C   0  0  0  0  0  0  0  0  0  0  0  0
    6.8246   -0.1608    0.0000 C   0  0  0  0  0  0  0  0  0  0  0  0
    6.3397    0.5066    0.0000 C   0  0  0  0  0  0  0  0  0  0  0  0
    5.5192    0.4204    0.0000 C   0  0  0  0  0  0  0  0  0  0  0  0
    5.1067   -0.2941    0.0000 N   0  0  0  0  0  0  0  0  0  0  0  0
    4.2997   -0.1225    0.0000 O   0  0  0  0  0  0  0  0  0  0  0  0
    4.2135    0.6979    0.0000 C   0  0  0  0  0  0  0  0  0  0  0  0
    3.4990    1.1104    0.0000 C   0  0  0  0  0  0  0  0  0  0  0  0
    2.7845    0.6979    0.0000 O   0  0  0  0  0  0  0  0  0  0  0  0
    2.0701    1.1104    0.0000 C   0  0  0  0  0  0  0  0  0  0  0  0
    1.3556    0.6979    0.0000 C   0  0  0  0  0  0  0  0  0  0  0  0
    0.6411    1.1104    0.0000 C   0  0  0  0  0  0  0  0  0  0  0  0
    0.6411    1.9354    0.0000 C   0  0  0  0  0  0  0  0  0  0  0  0
   -0.1435    2.1904    0.0000 C   0  0  0  0  0  0  0  0  0  0  0  0
   -0.6284    1.5229    0.0000 C   0  0  0  0  0  0  0  0  0  0  0  0
   -0.1435    0.8555    0.0000 C   0  0  0  0  0  0  0  0  0  0  0  0
    1.3556    2.3479    0.0000 C   0  0  0  0  0  0  0  0  0  0  0  0
    2.0701    1.9354    0.0000 C   0  0  0  0  0  0  0  0  0  0  0  0
    4.9671    1.0335    0.0000 N   0  0  0  0  0  0  0  0  0  0  0  0
  1  2  1  0  0  0  0
  2  3  1  0  0  0  0
  3  4  2  0  0  0  0
  3  5  1  0  0  0  0
  5  6  2  0  0  0  0
  6  7  1  0  0  0  0
  7  8  2  0  0  0  0
  8  9  1  0  0  0  0
  9 10  2  0  0  0  0
  5 10  1  0  0  0  0
 10 11  1  0  0  0  0
  8 12  1  0  0  0  0
 12 13  1  0  0  0  0
 12 14  1  0  0  0  0
 14 15  1  0  0  0  0
 15 16  1  0  0  0  0
 16 17  2  0  0  0  0
 17 18  1  0  0  0  0
 18 19  1  0  0  0  0
 19 20  1  0  0  0  0
 20 21  1  0  0  0  0
 21 22  1  0  0  0  0
 22 23  2  0  0  0  0
 23 24  1  0  0  0  0
 24 25  2  0  0  0  0
 25 26  1  0  0  0  0
 26 27  1  0  0  0  0
 27 28  1  0  0  0  0
 24 28  1  0  0  0  0
 25 29  1  0  0  0  0
 29 30  2  0  0  0  0
 22 30  1  0  0  0  0
 19 31  2  0  0  0  0
 16 31  1  0  0  0  0
M  END
> <ID>
CPD_3207

$$$$
CPD_3212
  Mrv1822 09091914012D          

 34 37  0  0  0  0            999 V2000
   -3.2050   -4.8432    0.0000 C   0  0  0  0  0  0  0  0  0  0  0  0
   -2.4905   -5.2557    0.0000 C   0  0  0  0  0  0  0  0  0  0  0  0
   -1.7760   -4.8432    0.0000 C   0  0  0  0  0  0  0  0  0  0  0  0
   -1.0616   -5.2557    0.0000 C   0  0  0  0  0  0  0  0  0  0  0  0
   -0.3471   -4.8432    0.0000 C   0  0  0  0  0  0  0  0  0  0  0  0
    0.3674   -5.2557    0.0000 N   0  0  0  0  0  0  0  0  0  0  0  0
    1.0818   -4.8432    0.0000 C   0  0  0  0  0  0  0  0  0  0  0  0
    1.0818   -4.0182    0.0000 O   0  0  0  0  0  0  0  0  0  0  0  0
    1.7963   -5.2557    0.0000 C   0  0  0  0  0  0  0  0  0  0  0  0
    2.5108   -4.8432    0.0000 C   0  0  0  0  0  0  0  0  0  0  0  0
    3.2253   -5.2557    0.0000 C   0  0  0  0  0  0  0  0  0  0  0  0
    3.2253   -6.0807    0.0000 C   0  0  0  0  0  0  0  0  0  0  0  0
    2.5108   -6.4932    0.0000 C   0  0  0  0  0  0  0  0  0  0  0  0
    1.7963   -6.0807    0.0000 C   0  0  0  0  0  0  0  0  0  0  0  0
    2.5108   -4.0182    0.0000 N   0  0  0  0  0  0  0  0  0  0  0  0
    3.2253   -3.6057    0.0000 C   0  0  0  0  0  0  0  0  0  0  0  0
    1.7963   -3.6057    0.0000 C   0  0  0  0  0  0  0  0  0  0  0  0
    1.7963   -2.7807    0.0000 C   0  0  0  0  0  0  0  0  0  0  0  0
    1.0818   -2.3682    0.0000 C   0  0  0  0  0  0  0  0  0  0  0  0
    0.3282   -2.7037    0.0000 N   0  0  0  0  0  0  0  0  0  0  0  0
   -0.2239   -2.0906    0.0000 O   0  0  0  0  0  0  0  0  0  0  0  0
    0.1886   -1.3762    0.0000 C   0  0  0  0  0  0  0  0  0  0  0  0
   -0.1469   -0.6225    0.0000 C   0  0  0  0  0  0  0  0  0  0  0  0
   -0.9674   -0.5362    0.0000 O   0  0  0  0  0  0  0  0  0  0  0  0
   -1.3030    0.2174    0.0000 C   0  0  0  0  0  0  0  0  0  0  0  0
   -2.1234    0.3037    0.0000 C   0  0  0  0  0  0  0  0  0  0  0  0
   -2.4590    1.0573    0.0000 C   0  0  0  0  0  0  0  0  0  0  0  0
   -1.9741    1.7248    0.0000 C   0  0  0  0  0  0  0  0  0  0  0  0
   -2.4590    2.3922    0.0000 C   0  0  0  0  0  0  0  0  0  0  0  0
   -3.2436    2.1373    0.0000 C   0  0  0  0  0  0  0  0  0  0  0  0
   -3.2436    1.3123    0.0000 C   0  0  0  0  0  0  0  0  0  0  0  0
   -1.1536    1.6385    0.0000 C   0  0  0  0  0  0  0  0  0  0  0  0
   -0.8180    0.8849    0.0000 C   0  0  0  0  0  0  0  0  0  0  0  0
    0.9956   -1.5477    0.0000 N   0  0  0  0  0  0  0  0  0  0  0  0
  1  2  1  0  0  0  0
  2  3  1  0  0  0  0
  3  4  1  0  0  0  0
  4  5  1  0  0  0  0
  5  6  1  0  0  0  0
  6  7  1  0  0  0  0
  7  8  2  0  0  0  0
  7  9  1  0  0  0  0
  9 10  2  0  0  0  0
 10 11  1  0  0  0  0
 11 12  2  0  0  0  0
 12 13  1  0  0  0  0
 13 14  2  0  0  0  0
  9 14  1  0  0  0  0
 10 15  1  0  0  0  0
 15 16  1  0  0  0  0
 15 17  1  0  0  0  0
 17 18  1  0  0  0  0
 18 19  1  0  0  0  0
 19 20  2  0  0  0  0
 20 21  1  0  0  0  0
 21 22  1  0  0  0  0
 22 23  1  0  0  0  0
 23 24  1  0  0  0  0
 24 25  1  0  0  0  0
 25 26  2  0  0  0  0
 26 27  1  0  0  0  0
 27 28  2  0  0  0  0
 28 29  1  0  0  0  0
 29 30  1  0  0  0  0
 30 31  1  0  0  0  0
 27 31  1  0  0  0  0
 28 32  1  0  0  0  0
 32 33  2  0  0  0  0
 25 33  1  0  0  0  0
 22 34  2  0  0  0  0
 19 34  1  0  0  0  0
M  END
> <ID>
CPD_3212

$$$$
CPD_3217
  Mrv1822 09091914012D          

 34 37  0  0  0  0            999 V2000
   -5.0013   -3.7125    0.0000 N   0  0  0  0  0  0  0  0  0  0  0  0
   -4.2868   -4.1250    0.0000 C   0  0  0  0  0  0  0  0  0  0  0  0
   -3.5724   -3.7125    0.0000 N   0  0  0  0  0  0  0  0  0  0  0  0
   -4.2868   -4.9500    0.0000 S   0  0  0  0  0  0  0  0  0  0  0  0
   -3.5724   -5.3625    0.0000 C   0  0  0  0  0  0  0  0  0  0  0  0
   -3.5724   -6.1875    0.0000 C   0  0  0  0  0  0  0  0  0  0  0  0
   -2.8579   -6.6000    0.0000 C   0  0  0  0  0  0  0  0  0  0  0  0
   -2.8579   -7.4250    0.0000 C   0  0  0  0  0  0  0  0  0  0  0  0
   -3.5724   -7.8375    0.0000 C   0  0  0  0  0  0  0  0  0  0  0  0
   -3.5724   -8.6625    0.0000 Br  0  0  0  0  0  0  0  0  0  0  0  0
   -4.2868   -7.4250    0.0000 C   0  0  0  0  0  0  0  0  0  0  0  0
   -4.2868   -6.6000    0.0000 C   0  0  0  0  0  0  0  0  0  0  0  0
   -2.1434   -6.1875    0.0000 N   0  0  0  0  0  0  0  0  0  0  0  0
   -2.1434   -5.3625    0.0000 C   0  0  0  0  0  0  0  0  0  0  0  0
   -1.4289   -4.9500    0.0000 C   0  0  0  0  0  0  0  0  0  0  0  0
   -0.7145   -5.3625    0.0000 C   0  0  0  0  0  0  0  0  0  0  0  0
   -0.7145   -6.1875    0.0000 C   0  0  0  0  0  0  0  0  0  0  0  0
    0.0000   -6.6000    0.0000 C   0  0  0  0  0  0  0  0  0  0  0  0
    0.7145   -6.1875    0.0000 O   0  0  0  0  0  0  0  0  0  0  0  0
    1.4289   -6.6000    0.0000 C   0  0  0  0  0  0  0  0  0  0  0  0
    2.1434   -6.1875    0.0000 C   0  0  0  0  0  0  0  0  0  0  0  0
    2.8579   -6.6000    0.0000 C   0  0  0  0  0  0  0  0  0  0  0  0
    2.8579   -7.4250    0.0000 C   0  0  0  0  0  0  0  0  0  0  0  0
    2.1434   -7.8375    0.0000 C   0  0  0  0  0  0  0  0  0  0  0  0
    1.4289   -7.4250    0.0000 C   0  0  0  0  0  0  0  0  0  0  0  0
    3.5724   -7.8375    0.0000 C   0  0  0  0  0  0  0  0  0  0  0  0
    3.5724   -8.6625    0.0000 O   0  0  0  0  0  0  0  0  0  0  0  0
    4.2868   -7.4250    0.0000 N   0  0  0  0  0  0  0  0  0  0  0  0
    4.2868   -6.6000    0.0000 C   0  0  0  0  0  0  0  0  0  0  0  0
    5.0013   -6.1875    0.0000 C   0  0  0  0  0  0  0  0  0  0  0  0
    5.7158   -6.6000    0.0000 C   0  0  0  0  0  0  0  0  0  0  0  0
    5.7158   -7.4250    0.0000 C   0  0  0  0  0  0  0  0  0  0  0  0
    5.0013   -7.8375    0.0000 C   0  0  0  0  0  0  0  0  0  0  0  0
   -1.4289   -6.6000    0.0000 C   0  0  0  0  0  0  0  0  0  0  0  0
  1  2  1  0  0  0  0
  2  3  2  0  0  0  0
  2  4  1  0  0  0  0
  4  5  1  0  0  0  0
  5  6  1  0  0  0  0
  6  7  2  0  0  0  0
  7  8  1  0  0  0  0
  8  9  2  0  0  0  0
  9 10  1  0  0  0  0
  9 11  1  0  0  0  0
 11 12  2  0  0  0  0
  6 12  1  0  0  0  0
  7 13  1  0  0  0  0
 13 14  1  0  0  0  0
 14 15  1  0  0  0  0
 15 16  1  0  0  0  0
 16 17  1  0  0  0  0
 17 18  1  0  0  0  0
 18 19  1  0  0  0  0
 19 20  1  0  0  0  0
 20 21  2  0  0  0  0
 21 22  1  0  0  0  0
 22 23  2  0  0  0  0
 23 24  1  0  0  0  0
 24 25  2  0  0  0  0
 20 25  1  0  0  0  0
 23 26  1  0  0  0  0
 26 27  2  0  0  0  0
 26 28  1  0  0  0  0
 28 29  1  0  0  0  0
 29 30  1  0  0  0  0
 30 31  1  0  0  0  0
 31 32  1  0  0  0  0
 32 33  1  0  0  0  0
 28 33  1  0  0  0  0
 17 34  1  0  0  0  0
 13 34  1  0  0  0  0
M  END
> <ID>
CPD_3217

$$$$
CPD_3222
  Mrv1822 09091914012D          

 26 28  0  0  0  0            999 V2000
   -1.4087   -1.4124    0.0000 H   0  0  0  0  0  0  0  0  0  0  0  0
   -0.5837   -1.4124    0.0000 O   0  0  0  0  0  0  0  0  0  0  0  0
   -0.1712   -0.6979    0.0000 C   0  0  0  0  0  0  0  0  0  0  0  0
    0.6538   -0.6979    0.0000 C   0  0  0  0  0  0  0  0  0  0  0  0
    1.1387   -0.0305    0.0000 C   0  0  0  0  0  0  0  0  0  0  0  0
    1.9233   -0.2854    0.0000 C   0  0  0  0  0  0  0  0  0  0  0  0
    2.6378    0.1271    0.0000 N   0  0  0  0  0  0  0  0  0  0  0  0
    3.3523   -0.2854    0.0000 C   0  0  0  0  0  0  0  0  0  0  0  0
    3.3523   -1.1104    0.0000 C   0  0  0  0  0  0  0  0  0  0  0  0
    2.6378   -1.5229    0.0000 C   0  0  0  0  0  0  0  0  0  0  0  0
    2.6378   -2.3479    0.0000 N   0  0  0  0  0  0  0  0  0  0  0  0
    3.3523   -2.7604    0.0000 C   0  0  0  0  0  0  0  0  0  0  0  0
    4.0668   -2.3479    0.0000 O   0  0  0  0  0  0  0  0  0  0  0  0
    3.3523   -3.5854    0.0000 C   0  0  0  0  0  0  0  0  0  0  0  0
    3.3523   -4.4104    0.0000 C   0  0  0  0  0  0  0  0  0  0  0  0
    4.1773   -3.5854    0.0000 C   0  0  0  0  0  0  0  0  0  0  0  0
    2.5273   -3.5854    0.0000 C   0  0  0  0  0  0  0  0  0  0  0  0
    1.9233   -1.1104    0.0000 C   0  0  0  0  0  0  0  0  0  0  0  0
    1.1387   -1.3654    0.0000 O   0  0  0  0  0  0  0  0  0  0  0  0
   -0.5837    0.0165    0.0000 C   0  0  0  0  0  0  0  0  0  0  0  0
   -1.4042    0.1028    0.0000 C   0  0  0  0  0  0  0  0  0  0  0  0
   -1.9562   -0.5103    0.0000 C   0  0  0  0  0  0  0  0  0  0  0  0
   -1.5757    0.9097    0.0000 O   0  0  0  0  0  0  0  0  0  0  0  0
   -0.8612    1.3222    0.0000 C   0  0  0  0  0  0  0  0  0  0  0  0
   -0.2481    0.7702    0.0000 C   0  0  0  0  0  0  0  0  0  0  0  0
    0.5588    0.9417    0.0000 O   0  0  0  0  0  0  0  0  0  0  0  0
  1  2  1  0  0  0  0
  2  3  1  0  0  0  0
  3  4  1  0  0  0  0
  4  5  2  0  0  0  0
  5  6  1  0  0  0  0
  6  7  2  0  0  0  0
  7  8  1  0  0  0  0
  8  9  2  0  0  0  0
  9 10  1  0  0  0  0
 10 11  1  0  0  0  0
 11 12  1  0  0  0  0
 12 13  2  0  0  0  0
 12 14  1  0  0  0  0
 14 15  1  0  0  0  0
 14 16  1  0  0  0  0
 14 17  1  0  0  0  0
 10 18  2  0  0  0  0
  6 18  1  0  0  0  0
 18 19  1  0  0  0  0
  4 19  1  0  0  0  0
  3 20  1  0  0  0  0
 20 21  2  0  0  0  0
 21 22  1  0  0  0  0
 21 23  1  0  0  0  0
 23 24  1  0  0  0  0
 24 25  1  0  0  0  0
 20 25  1  0  0  0  0
 25 26  2  0  0  0  0
M  END
> <ID>
CPD_3222

$$$$
CPD_3227
  Mrv1822 09091914012D          

 20 22  0  0  0  0            999 V2000
    1.0125    0.8094    0.0000 H   0  0  0  0  0  0  0  0  0  0  0  0
    0.1921    0.7232    0.0000 O   0  0  0  0  0  0  0  0  0  0  0  0
   -0.1435   -0.0305    0.0000 C   0  0  0  0  0  0  0  0  0  0  0  0
   -0.6284   -0.6979    0.0000 C   0  0  0  0  0  0  0  0  0  0  0  0
   -1.4534   -0.6979    0.0000 O   0  0  0  0  0  0  0  0  0  0  0  0
   -0.1435   -1.3654    0.0000 N   0  0  0  0  0  0  0  0  0  0  0  0
    0.6411   -1.1104    0.0000 C   0  0  0  0  0  0  0  0  0  0  0  0
    0.6411   -0.2854    0.0000 C   0  0  0  0  0  0  0  0  0  0  0  0
    1.3556    0.1271    0.0000 C   0  0  0  0  0  0  0  0  0  0  0  0
    1.3556    0.9521    0.0000 Cl  0  0  0  0  0  0  0  0  0  0  0  0
    2.0701   -0.2854    0.0000 C   0  0  0  0  0  0  0  0  0  0  0  0
    2.0701   -1.1104    0.0000 C   0  0  0  0  0  0  0  0  0  0  0  0
    1.3556   -1.5229    0.0000 C   0  0  0  0  0  0  0  0  0  0  0  0
   -0.8580    0.3820    0.0000 C   0  0  0  0  0  0  0  0  0  0  0  0
   -1.6117    0.0464    0.0000 C   0  0  0  0  0  0  0  0  0  0  0  0
   -1.7832   -0.7605    0.0000 C   0  0  0  0  0  0  0  0  0  0  0  0
   -2.1637    0.6595    0.0000 O   0  0  0  0  0  0  0  0  0  0  0  0
   -1.7512    1.3740    0.0000 C   0  0  0  0  0  0  0  0  0  0  0  0
   -0.9442    1.2025    0.0000 C   0  0  0  0  0  0  0  0  0  0  0  0
   -0.3311    1.7545    0.0000 O   0  0  0  0  0  0  0  0  0  0  0  0
  1  2  1  0  0  0  0
  2  3  1  0  0  0  0
  3  4  1  0  0  0  0
  4  5  2  0  0  0  0
  4  6  1  0  0  0  0
  6  7  1  0  0  0  0
  7  8  2  0  0  0  0
  3  8  1  0  0  0  0
  8  9  1  0  0  0  0
  9 10  1  0  0  0  0
  9 11  2  0  0  0  0
 11 12  1  0  0  0  0
 12 13  2  0  0  0  0
  7 13  1  0  0  0  0
  3 14  1  0  0  0  0
 14 15  2  0  0  0  0
 15 16  1  0  0  0  0
 15 17  1  0  0  0  0
 17 18  1  0  0  0  0
 18 19  1  0  0  0  0
 14 19  1  0  0  0  0
 19 20  2  0  0  0  0
M  END
> <ID>
CPD_3227

$$$$
CPD_3232
  Mrv1822 09091914012D          

 19 20  0  0  0  0            999 V2000
    0.8212   -0.4741    0.0000 H   0  0  0  0  0  0  0  0  0  0  0  0
    0.1067   -0.0616    0.0000 O   0  0  0  0  0  0  0  0  0  0  0  0
   -0.6078   -0.4741    0.0000 C   0  0  0  0  0  0  0  0  0  0  0  0
   -0.6078   -1.2991    0.0000 C   0  0  0  0  0  0  0  0  0  0  0  0
   -1.2752   -1.7840    0.0000 C   0  0  0  0  0  0  0  0  0  0  0  0
   -2.0598   -1.5291    0.0000 C   0  0  0  0  0  0  0  0  0  0  0  0
   -1.0203   -2.5687    0.0000 O   0  0  0  0  0  0  0  0  0  0  0  0
   -0.1953   -2.5687    0.0000 C   0  0  0  0  0  0  0  0  0  0  0  0
    0.0597   -1.7840    0.0000 C   0  0  0  0  0  0  0  0  0  0  0  0
    0.8443   -1.5291    0.0000 O   0  0  0  0  0  0  0  0  0  0  0  0
   -1.3222   -0.0616    0.0000 C   0  0  0  0  0  0  0  0  0  0  0  0
   -2.0367   -0.4741    0.0000 C   0  0  0  0  0  0  0  0  0  0  0  0
   -2.7512   -0.0616    0.0000 C   0  0  0  0  0  0  0  0  0  0  0  0
   -2.7512    0.7634    0.0000 C   0  0  0  0  0  0  0  0  0  0  0  0
   -3.4656    1.1759    0.0000 O   0  0  0  0  0  0  0  0  0  0  0  0
   -2.0367    1.1759    0.0000 C   0  0  0  0  0  0  0  0  0  0  0  0
   -2.0367    2.0009    0.0000 F   0  0  0  0  0  0  0  0  0  0  0  0
   -1.3222    0.7634    0.0000 C   0  0  0  0  0  0  0  0  0  0  0  0
   -0.6078    1.1759    0.0000 F   0  0  0  0  0  0  0  0  0  0  0  0
  1  2  1  0  0  0  0
  2  3  1  0  0  0  0
  3  4  1  0  0  0  0
  4  5  2  0  0  0  0
  5  6  1  0  0  0  0
  5  7  1  0  0  0  0
  7  8  1  0  0  0  0
  8  9  1  0  0  0  0
  4  9  1  0  0  0  0
  9 10  2  0  0  0  0
  3 11  1  0  0  0  0
 11 12  2  0  0  0  0
 12 13  1  0  0  0  0
 13 14  2  0  0  0  0
 14 15  1  0  0  0  0
 14 16  1  0  0  0  0
 16 17  1  0  0  0  0
 16 18  2  0  0  0  0
 11 18  1  0  0  0  0
 18 19  1  0  0  0  0
M  END
> <ID>
CPD_3232

$$$$
CPD_3237
  Mrv1822 09091914012D          

 26 28  0  0  0  0            999 V2000
    2.0367   -2.9491    0.0000 H   0  0  0  0  0  0  0  0  0  0  0  0
    2.0367   -3.7741    0.0000 O   0  0  0  0  0  0  0  0  0  0  0  0
    2.7512   -4.1866    0.0000 C   0  0  0  0  0  0  0  0  0  0  0  0
    2.7512   -5.0116    0.0000 C   0  0  0  0  0  0  0  0  0  0  0  0
    3.4186   -5.4965    0.0000 C   0  0  0  0  0  0  0  0  0  0  0  0
    4.2032   -5.2416    0.0000 C   0  0  0  0  0  0  0  0  0  0  0  0
    3.1637   -6.2812    0.0000 O   0  0  0  0  0  0  0  0  0  0  0  0
    2.3387   -6.2812    0.0000 C   0  0  0  0  0  0  0  0  0  0  0  0
    2.0837   -5.4965    0.0000 C   0  0  0  0  0  0  0  0  0  0  0  0
    1.2991   -5.2416    0.0000 O   0  0  0  0  0  0  0  0  0  0  0  0
    3.4656   -3.7741    0.0000 C   0  0  0  0  0  0  0  0  0  0  0  0
    3.4656   -2.9491    0.0000 C   0  0  0  0  0  0  0  0  0  0  0  0
    4.1801   -2.5366    0.0000 C   0  0  0  0  0  0  0  0  0  0  0  0
    4.8946   -2.9491    0.0000 C   0  0  0  0  0  0  0  0  0  0  0  0
    5.6091   -2.5366    0.0000 O   0  0  0  0  0  0  0  0  0  0  0  0
    5.6091   -1.7116    0.0000 C   0  0  0  0  0  0  0  0  0  0  0  0
    4.8946   -1.2991    0.0000 O   0  0  0  0  0  0  0  0  0  0  0  0
    6.3235   -1.2991    0.0000 C   0  0  0  0  0  0  0  0  0  0  0  0
    6.3235   -0.4741    0.0000 C   0  0  0  0  0  0  0  0  0  0  0  0
    7.0380   -0.0616    0.0000 C   0  0  0  0  0  0  0  0  0  0  0  0
    7.7525   -0.4741    0.0000 C   0  0  0  0  0  0  0  0  0  0  0  0
    7.7525   -1.2991    0.0000 C   0  0  0  0  0  0  0  0  0  0  0  0
    7.0380   -1.7116    0.0000 C   0  0  0  0  0  0  0  0  0  0  0  0
    7.0380   -2.5366    0.0000 F   0  0  0  0  0  0  0  0  0  0  0  0
    4.8946   -3.7741    0.0000 C   0  0  0  0  0  0  0  0  0  0  0  0
    4.1801   -4.1866    0.0000 C   0  0  0  0  0  0  0  0  0  0  0  0
  1  2  1  0  0  0  0
  2  3  1  0  0  0  0
  3  4  1  0  0  0  0
  4  5  2  0  0  0  0
  5  6  1  0  0  0  0
  5  7  1  0  0  0  0
  7  8  1  0  0  0  0
  8  9  1  0  0  0  0
  4  9  1  0  0  0  0
  9 10  2  0  0  0  0
  3 11  1  0  0  0  0
 11 12  2  0  0  0  0
 12 13  1  0  0  0  0
 13 14  2  0  0  0  0
 14 15  1  0  0  0  0
 15 16  1  0  0  0  0
 16 17  2  0  0  0  0
 16 18  1  0  0  0  0
 18 19  2  0  0  0  0
 19 20  1  0  0  0  0
 20 21  2  0  0  0  0
 21 22  1  0  0  0  0
 22 23  2  0  0  0  0
 18 23  1  0  0  0  0
 23 24  1  0  0  0  0
 14 25  1  0  0  0  0
 25 26  2  0  0  0  0
 11 26  1  0  0  0  0
M  END
> <ID>
CPD_3237

$$$$
CPD_3242
  Mrv1822 09091914012D          

 35 38  0  0  0  0            999 V2000
    4.7812    3.5854    0.0000 C   0  0  0  0  0  0  0  0  0  0  0  0
    4.0668    3.1729    0.0000 O   0  0  0  0  0  0  0  0  0  0  0  0
    4.0668    2.3479    0.0000 C   0  0  0  0  0  0  0  0  0  0  0  0
    4.7812    1.9354    0.0000 O   0  0  0  0  0  0  0  0  0  0  0  0
    3.3523    1.9354    0.0000 C   0  0  0  0  0  0  0  0  0  0  0  0
    3.3523    1.1104    0.0000 C   0  0  0  0  0  0  0  0  0  0  0  0
    2.6378    0.6979    0.0000 C   0  0  0  0  0  0  0  0  0  0  0  0
    1.9233    1.1104    0.0000 C   0  0  0  0  0  0  0  0  0  0  0  0
    1.1387    0.8555    0.0000 N   0  0  0  0  0  0  0  0  0  0  0  0
    0.8838    0.0709    0.0000 C   0  0  0  0  0  0  0  0  0  0  0  0
    1.4358   -0.5422    0.0000 C   0  0  0  0  0  0  0  0  0  0  0  0
    1.1809   -1.3268    0.0000 N   0  0  0  0  0  0  0  0  0  0  0  0
    1.7329   -1.9399    0.0000 C   0  0  0  0  0  0  0  0  0  0  0  0
    2.5399   -1.7684    0.0000 O   0  0  0  0  0  0  0  0  0  0  0  0
    1.4780   -2.7246    0.0000 O   0  0  0  0  0  0  0  0  0  0  0  0
    2.0300   -3.3376    0.0000 C   0  0  0  0  0  0  0  0  0  0  0  0
    2.5820   -3.9507    0.0000 C   0  0  0  0  0  0  0  0  0  0  0  0
    1.4169   -3.8897    0.0000 C   0  0  0  0  0  0  0  0  0  0  0  0
    2.6431   -2.7856    0.0000 C   0  0  0  0  0  0  0  0  0  0  0  0
    0.6538    1.5229    0.0000 C   0  0  0  0  0  0  0  0  0  0  0  0
    1.1387    2.1904    0.0000 N   0  0  0  0  0  0  0  0  0  0  0  0
    1.9233    1.9354    0.0000 C   0  0  0  0  0  0  0  0  0  0  0  0
    2.6378    2.3479    0.0000 C   0  0  0  0  0  0  0  0  0  0  0  0
   -0.1712    1.5229    0.0000 C   0  0  0  0  0  0  0  0  0  0  0  0
   -0.6561    0.8555    0.0000 C   0  0  0  0  0  0  0  0  0  0  0  0
   -1.4407    1.1104    0.0000 N   0  0  0  0  0  0  0  0  0  0  0  0
   -1.4407    1.9354    0.0000 N   0  0  0  0  0  0  0  0  0  0  0  0
   -0.6561    2.1904    0.0000 C   0  0  0  0  0  0  0  0  0  0  0  0
   -0.4012    2.9750    0.0000 C   0  0  0  0  0  0  0  0  0  0  0  0
   -0.9532    3.5881    0.0000 C   0  0  0  0  0  0  0  0  0  0  0  0
   -0.6983    4.3727    0.0000 C   0  0  0  0  0  0  0  0  0  0  0  0
    0.1087    4.5442    0.0000 C   0  0  0  0  0  0  0  0  0  0  0  0
    0.6607    3.9312    0.0000 C   0  0  0  0  0  0  0  0  0  0  0  0
    1.4677    4.1027    0.0000 C   0  0  0  0  0  0  0  0  0  0  0  0
    0.4058    3.1465    0.0000 C   0  0  0  0  0  0  0  0  0  0  0  0
  1  2  1  0  0  0  0
  2  3  1  0  0  0  0
  3  4  2  0  0  0  0
  3  5  1  0  0  0  0
  5  6  4  0  0  0  0
  6  7  4  0  0  0  0
  7  8  4  0  0  0  0
  8  9  4  0  0  0  0
  9 10  1  0  0  0  0
 10 11  1  0  0  0  0
 11 12  1  0  0  0  0
 12 13  1  0  0  0  0
 13 14  2  0  0  0  0
 13 15  1  0  0  0  0
 15 16  1  0  0  0  0
 16 17  1  0  0  0  0
 16 18  1  0  0  0  0
 16 19  1  0  0  0  0
  9 20  4  0  0  0  0
 20 21  4  0  0  0  0
 21 22  4  0  0  0  0
  8 22  4  0  0  0  0
 22 23  4  0  0  0  0
  5 23  4  0  0  0  0
 20 24  1  0  0  0  0
 24 25  4  0  0  0  0
 25 26  4  0  0  0  0
 26 27  4  0  0  0  0
 27 28  4  0  0  0  0
 24 28  4  0  0  0  0
 28 29  1  0  0  0  0
 29 30  4  0  0  0  0
 30 31  4  0  0  0  0
 31 32  4  0  0  0  0
 32 33  4  0  0  0  0
 33 34  1  0  0  0  0
 33 35  4  0  0  0  0
 29 35  4  0  0  0  0
M  STY  1   1 DAT
M  SAL   1  1  27
M  SDT   1 MRV_IMPLICIT_H                                        
M  SDD   1     0.5304   -0.4125    DR    ALL  0       0  
M  SED   1 IMPL_H1
M  END
> <ID>
CPD_3242

$$$$
CPD_3247
  Mrv1822 09091914012D          

 32 36  0  0  0  0            999 V2000
    4.7812    1.1104    0.0000 C   0  0  0  0  0  0  0  0  0  0  0  0
    4.7812    1.9354    0.0000 O   0  0  0  0  0  0  0  0  0  0  0  0
    4.0668    2.3479    0.0000 C   0  0  0  0  0  0  0  0  0  0  0  0
    4.0668    3.1729    0.0000 O   0  0  0  0  0  0  0  0  0  0  0  0
    3.3523    1.9354    0.0000 C   0  0  0  0  0  0  0  0  0  0  0  0
    3.3523    1.1104    0.0000 C   0  0  0  0  0  0  0  0  0  0  0  0
    2.6378    0.6979    0.0000 C   0  0  0  0  0  0  0  0  0  0  0  0
    1.9233    1.1104    0.0000 C   0  0  0  0  0  0  0  0  0  0  0  0
    1.1387    0.8555    0.0000 N   0  0  0  0  0  0  0  0  0  0  0  0
    0.8838    0.0709    0.0000 C   0  0  0  0  0  0  0  0  0  0  0  0
    1.4358   -0.5422    0.0000 C   0  0  0  0  0  0  0  0  0  0  0  0
    1.1809   -1.3268    0.0000 C   0  0  0  0  0  0  0  0  0  0  0  0
    0.3739   -1.4984    0.0000 C   0  0  0  0  0  0  0  0  0  0  0  0
   -0.1781   -0.8853    0.0000 C   0  0  0  0  0  0  0  0  0  0  0  0
    0.0768   -0.1006    0.0000 C   0  0  0  0  0  0  0  0  0  0  0  0
    0.6538    1.5229    0.0000 C   0  0  0  0  0  0  0  0  0  0  0  0
    1.1387    2.1904    0.0000 N   0  0  0  0  0  0  0  0  0  0  0  0
    1.9233    1.9354    0.0000 C   0  0  0  0  0  0  0  0  0  0  0  0
    2.6378    2.3479    0.0000 C   0  0  0  0  0  0  0  0  0  0  0  0
   -0.1712    1.5229    0.0000 C   0  0  0  0  0  0  0  0  0  0  0  0
   -0.6561    0.8555    0.0000 C   0  0  0  0  0  0  0  0  0  0  0  0
   -1.4407    1.1104    0.0000 N   0  0  0  0  0  0  0  0  0  0  0  0
   -1.4407    1.9354    0.0000 N   0  0  0  0  0  0  0  0  0  0  0  0
   -0.6561    2.1904    0.0000 C   0  0  0  0  0  0  0  0  0  0  0  0
   -0.4012    2.9750    0.0000 C   0  0  0  0  0  0  0  0  0  0  0  0
   -0.9532    3.5881    0.0000 C   0  0  0  0  0  0  0  0  0  0  0  0
   -1.7602    3.4166    0.0000 C   0  0  0  0  0  0  0  0  0  0  0  0
   -2.3122    4.0297    0.0000 C   0  0  0  0  0  0  0  0  0  0  0  0
   -2.0573    4.8143    0.0000 C   0  0  0  0  0  0  0  0  0  0  0  0
   -1.2503    4.9858    0.0000 C   0  0  0  0  0  0  0  0  0  0  0  0
   -0.9954    5.7704    0.0000 F   0  0  0  0  0  0  0  0  0  0  0  0
   -0.6983    4.3727    0.0000 C   0  0  0  0  0  0  0  0  0  0  0  0
  1  2  1  0  0  0  0
  2  3  1  0  0  0  0
  3  4  2  0  0  0  0
  3  5  1  0  0  0  0
  5  6  4  0  0  0  0
  6  7  4  0  0  0  0
  7  8  4  0  0  0  0
  8  9  4  0  0  0  0
  9 10  1  0  0  0  0
 10 11  1  0  0  0  0
 11 12  1  0  0  0  0
 12 13  1  0  0  0  0
 13 14  1  0  0  0  0
 14 15  1  0  0  0  0
 10 15  1  0  0  0  0
  9 16  4  0  0  0  0
 16 17  4  0  0  0  0
 17 18  4  0  0  0  0
  8 18  4  0  0  0  0
 18 19  4  0  0  0  0
  5 19  4  0  0  0  0
 16 20  1  0  0  0  0
 20 21  4  0  0  0  0
 21 22  4  0  0  0  0
 22 23  4  0  0  0  0
 23 24  4  0  0  0  0
 20 24  4  0  0  0  0
 24 25  1  0  0  0  0
 25 26  1  0  0  0  0
 26 27  4  0  0  0  0
 27 28  4  0  0  0  0
 28 29  4  0  0  0  0
 29 30  4  0  0  0  0
 30 31  1  0  0  0  0
 30 32  4  0  0  0  0
 26 32  4  0  0  0  0
M  STY  1   1 DAT
M  SAL   1  1  23
M  SDT   1 MRV_IMPLICIT_H                                        
M  SDD   1     0.5304   -0.4125    DR    ALL  0       0  
M  SED   1 IMPL_H1
M  END
> <ID>
CPD_3247

$$$$
CPD_3252
  Mrv1822 09091914012D          

 40 45  0  0  0  0            999 V2000
    7.6391    6.8854    0.0000 C   0  0  0  0  0  0  0  0  0  0  0  0
    7.6391    6.0604    0.0000 N   0  0  0  0  0  0  0  0  0  0  0  0
    8.3536    5.6479    0.0000 C   0  0  0  0  0  0  0  0  0  0  0  0
    8.3536    4.8229    0.0000 C   0  0  0  0  0  0  0  0  0  0  0  0
    7.6391    4.4104    0.0000 N   0  0  0  0  0  0  0  0  0  0  0  0
    7.6391    3.5854    0.0000 C   0  0  0  0  0  0  0  0  0  0  0  0
    6.9246    3.1729    0.0000 C   0  0  0  0  0  0  0  0  0  0  0  0
    6.9246    2.3479    0.0000 C   0  0  0  0  0  0  0  0  0  0  0  0
    6.2102    1.9354    0.0000 C   0  0  0  0  0  0  0  0  0  0  0  0
    5.4957    2.3479    0.0000 C   0  0  0  0  0  0  0  0  0  0  0  0
    4.7812    1.9354    0.0000 N   0  0  0  0  0  0  0  0  0  0  0  0
    4.0668    2.3479    0.0000 C   0  0  0  0  0  0  0  0  0  0  0  0
    4.0668    3.1729    0.0000 O   0  0  0  0  0  0  0  0  0  0  0  0
    3.3523    1.9354    0.0000 C   0  0  0  0  0  0  0  0  0  0  0  0
    3.3523    1.1104    0.0000 C   0  0  0  0  0  0  0  0  0  0  0  0
    2.6378    0.6979    0.0000 C   0  0  0  0  0  0  0  0  0  0  0  0
    1.9233    1.1104    0.0000 C   0  0  0  0  0  0  0  0  0  0  0  0
    1.1387    0.8555    0.0000 N   0  0  0  0  0  0  0  0  0  0  0  0
    0.6538    1.5229    0.0000 C   0  0  0  0  0  0  0  0  0  0  0  0
    1.1387    2.1904    0.0000 N   0  0  0  0  0  0  0  0  0  0  0  0
    1.9233    1.9354    0.0000 C   0  0  0  0  0  0  0  0  0  0  0  0
    2.6378    2.3479    0.0000 C   0  0  0  0  0  0  0  0  0  0  0  0
   -0.1712    1.5229    0.0000 C   0  0  0  0  0  0  0  0  0  0  0  0
   -0.5837    0.8085    0.0000 N   0  0  0  0  0  0  0  0  0  0  0  0
   -0.1712    0.0940    0.0000 C   0  0  0  0  0  0  0  0  0  0  0  0
   -0.5837   -0.6205    0.0000 C   0  0  0  0  0  0  0  0  0  0  0  0
   -1.4087   -0.6205    0.0000 C   0  0  0  0  0  0  0  0  0  0  0  0
   -1.8212    0.0940    0.0000 C   0  0  0  0  0  0  0  0  0  0  0  0
   -1.4087    0.8085    0.0000 C   0  0  0  0  0  0  0  0  0  0  0  0
   -0.5837    2.2374    0.0000 C   0  0  0  0  0  0  0  0  0  0  0  0
   -1.4087    2.2374    0.0000 C   0  0  0  0  0  0  0  0  0  0  0  0
   -1.8212    2.9519    0.0000 C   0  0  0  0  0  0  0  0  0  0  0  0
   -1.4087    3.6664    0.0000 C   0  0  0  0  0  0  0  0  0  0  0  0
   -1.8212    4.3808    0.0000 F   0  0  0  0  0  0  0  0  0  0  0  0
   -0.5837    3.6664    0.0000 C   0  0  0  0  0  0  0  0  0  0  0  0
   -0.1712    2.9519    0.0000 C   0  0  0  0  0  0  0  0  0  0  0  0
    5.4957    3.1729    0.0000 C   0  0  0  0  0  0  0  0  0  0  0  0
    6.2102    3.5854    0.0000 C   0  0  0  0  0  0  0  0  0  0  0  0
    6.9246    4.8229    0.0000 C   0  0  0  0  0  0  0  0  0  0  0  0
    6.9246    5.6479    0.0000 C   0  0  0  0  0  0  0  0  0  0  0  0
  1  2  1  0  0  0  0
  2  3  1  0  0  0  0
  3  4  1  0  0  0  0
  4  5  1  0  0  0  0
  5  6  1  0  0  0  0
  6  7  1  0  0  0  0
  7  8  4  0  0  0  0
  8  9  4  0  0  0  0
  9 10  4  0  0  0  0
 10 11  1  0  0  0  0
 11 12  1  0  0  0  0
 12 13  2  0  0  0  0
 12 14  1  0  0  0  0
 14 15  4  0  0  0  0
 15 16  4  0  0  0  0
 16 17  4  0  0  0  0
 17 18  4  0  0  0  0
 18 19  4  0  0  0  0
 19 20  4  0  0  0  0
 20 21  4  0  0  0  0
 17 21  4  0  0  0  0
 21 22  4  0  0  0  0
 14 22  4  0  0  0  0
 19 23  1  0  0  0  0
 23 24  1  0  0  0  0
 24 25  1  0  0  0  0
 25 26  1  0  0  0  0
 26 27  1  0  0  0  0
 27 28  1  0  0  0  0
 28 29  1  0  0  0  0
 24 29  1  0  0  0  0
 23 30  1  0  0  0  0
 30 31  4  0  0  0  0
 31 32  4  0  0  0  0
 32 33  4  0  0  0  0
 33 34  1  0  0  0  0
 33 35  4  0  0  0  0
 35 36  4  0  0  0  0
 30 36  4  0  0  0  0
 10 37  4  0  0  0  0
 37 38  4  0  0  0  0
  7 38  4  0  0  0  0
  5 39  1  0  0  0  0
 39 40  1  0  0  0  0
  2 40  1  0  0  0  0
M  STY  1   1 DAT
M  SAL   1  1  20
M  SDT   1 MRV_IMPLICIT_H                                        
M  SDD   1     0.5304   -0.4125    DR    ALL  0       0  
M  SED   1 IMPL_H1
M  END
> <ID>
CPD_3252

$$$$
CPD_3257
  Mrv1822 09091914012D          

 38 43  0  0  0  0            999 V2000
    6.7914   -9.4603    0.0000 C   0  0  0  0  0  0  0  0  0  0  0  0
    5.9664   -9.4603    0.0000 N   0  0  0  0  0  0  0  0  0  0  0  0
    5.5539  -10.1748    0.0000 C   0  0  0  0  0  0  0  0  0  0  0  0
    4.7289  -10.1748    0.0000 C   0  0  0  0  0  0  0  0  0  0  0  0
    4.3164   -9.4603    0.0000 N   0  0  0  0  0  0  0  0  0  0  0  0
    3.4914   -9.4603    0.0000 C   0  0  0  0  0  0  0  0  0  0  0  0
    3.0789   -8.7458    0.0000 C   0  0  0  0  0  0  0  0  0  0  0  0
    2.2539   -8.7458    0.0000 C   0  0  0  0  0  0  0  0  0  0  0  0
    1.8414   -8.0314    0.0000 C   0  0  0  0  0  0  0  0  0  0  0  0
    2.2539   -7.3169    0.0000 C   0  0  0  0  0  0  0  0  0  0  0  0
    1.8414   -6.6024    0.0000 N   0  0  0  0  0  0  0  0  0  0  0  0
    2.2539   -5.8880    0.0000 C   0  0  0  0  0  0  0  0  0  0  0  0
    3.0789   -5.8880    0.0000 O   0  0  0  0  0  0  0  0  0  0  0  0
    1.8414   -5.1735    0.0000 C   0  0  0  0  0  0  0  0  0  0  0  0
    1.0164   -5.1735    0.0000 C   0  0  0  0  0  0  0  0  0  0  0  0
    0.6039   -4.4590    0.0000 C   0  0  0  0  0  0  0  0  0  0  0  0
    1.0164   -3.7445    0.0000 C   0  0  0  0  0  0  0  0  0  0  0  0
    0.7615   -2.9599    0.0000 N   0  0  0  0  0  0  0  0  0  0  0  0
    1.4289   -2.4750    0.0000 C   0  0  0  0  0  0  0  0  0  0  0  0
    2.0964   -2.9599    0.0000 N   0  0  0  0  0  0  0  0  0  0  0  0
    1.8414   -3.7445    0.0000 C   0  0  0  0  0  0  0  0  0  0  0  0
    2.2539   -4.4590    0.0000 C   0  0  0  0  0  0  0  0  0  0  0  0
    1.4289   -1.6500    0.0000 C   0  0  0  0  0  0  0  0  0  0  0  0
    0.7145   -1.2375    0.0000 C   0  0  0  0  0  0  0  0  0  0  0  0
    0.0000   -1.6500    0.0000 Cl  0  0  0  0  0  0  0  0  0  0  0  0
    0.7145   -0.4125    0.0000 C   0  0  0  0  0  0  0  0  0  0  0  0
    1.4289    0.0000    0.0000 C   0  0  0  0  0  0  0  0  0  0  0  0
    2.1434   -0.4125    0.0000 C   0  0  0  0  0  0  0  0  0  0  0  0
    2.8579    0.0000    0.0000 C   0  0  0  0  0  0  0  0  0  0  0  0
    3.5724   -0.4125    0.0000 C   0  0  0  0  0  0  0  0  0  0  0  0
    4.2868   -0.0000    0.0000 C   0  0  0  0  0  0  0  0  0  0  0  0
    3.5724   -1.2375    0.0000 C   0  0  0  0  0  0  0  0  0  0  0  0
    2.8579   -1.6500    0.0000 N   0  0  0  0  0  0  0  0  0  0  0  0
    2.1434   -1.2375    0.0000 C   0  0  0  0  0  0  0  0  0  0  0  0
    3.0789   -7.3169    0.0000 C   0  0  0  0  0  0  0  0  0  0  0  0
    3.4914   -8.0314    0.0000 C   0  0  0  0  0  0  0  0  0  0  0  0
    4.7289   -8.7458    0.0000 C   0  0  0  0  0  0  0  0  0  0  0  0
    5.5539   -8.7458    0.0000 C   0  0  0  0  0  0  0  0  0  0  0  0
  1  2  1  0  0  0  0
  2  3  1  0  0  0  0
  3  4  1  0  0  0  0
  4  5  1  0  0  0  0
  5  6  1  0  0  0  0
  6  7  1  0  0  0  0
  7  8  4  0  0  0  0
  8  9  4  0  0  0  0
  9 10  4  0  0  0  0
 10 11  1  0  0  0  0
 11 12  1  0  0  0  0
 12 13  2  0  0  0  0
 12 14  1  0  0  0  0
 14 15  4  0  0  0  0
 15 16  4  0  0  0  0
 16 17  4  0  0  0  0
 17 18  4  0  0  0  0
 18 19  4  0  0  0  0
 19 20  4  0  0  0  0
 20 21  4  0  0  0  0
 17 21  4  0  0  0  0
 21 22  4  0  0  0  0
 14 22  4  0  0  0  0
 19 23  1  0  0  0  0
 23 24  4  0  0  0  0
 24 25  1  0  0  0  0
 24 26  4  0  0  0  0
 26 27  4  0  0  0  0
 27 28  4  0  0  0  0
 28 29  4  0  0  0  0
 29 30  4  0  0  0  0
 30 31  1  0  0  0  0
 30 32  4  0  0  0  0
 32 33  4  0  0  0  0
 33 34  4  0  0  0  0
 23 34  4  0  0  0  0
 28 34  4  0  0  0  0
 10 35  4  0  0  0  0
 35 36  4  0  0  0  0
  7 36  4  0  0  0  0
  5 37  1  0  0  0  0
 37 38  1  0  0  0  0
  2 38  1  0  0  0  0
M  STY  1   1 DAT
M  SAL   1  1  20
M  SDT   1 MRV_IMPLICIT_H                                        
M  SDD   1     0.5304   -0.4125    DR    ALL  0       0  
M  SED   1 IMPL_H1
M  END
> <ID>
CPD_3257

$$$$
CPD_3262
  Mrv1822 09091914012D          

 33 37  0  0  0  0            999 V2000
    7.6391    6.8854    0.0000 C   0  0  0  0  0  0  0  0  0  0  0  0
    7.6391    6.0604    0.0000 N   0  0  0  0  0  0  0  0  0  0  0  0
    8.3536    5.6479    0.0000 C   0  0  0  0  0  0  0  0  0  0  0  0
    8.3536    4.8229    0.0000 C   0  0  0  0  0  0  0  0  0  0  0  0
    7.6391    4.4104    0.0000 N   0  0  0  0  0  0  0  0  0  0  0  0
    7.6391    3.5854    0.0000 C   0  0  0  0  0  0  0  0  0  0  0  0
    6.9246    3.1729    0.0000 C   0  0  0  0  0  0  0  0  0  0  0  0
    6.9246    2.3479    0.0000 C   0  0  0  0  0  0  0  0  0  0  0  0
    6.2102    1.9354    0.0000 C   0  0  0  0  0  0  0  0  0  0  0  0
    5.4957    2.3479    0.0000 C   0  0  0  0  0  0  0  0  0  0  0  0
    4.7812    1.9354    0.0000 N   0  0  0  0  0  0  0  0  0  0  0  0
    4.0668    2.3479    0.0000 C   0  0  0  0  0  0  0  0  0  0  0  0
    4.0668    3.1729    0.0000 O   0  0  0  0  0  0  0  0  0  0  0  0
    3.3523    1.9354    0.0000 C   0  0  0  0  0  0  0  0  0  0  0  0
    3.3523    1.1104    0.0000 C   0  0  0  0  0  0  0  0  0  0  0  0
    2.6378    0.6979    0.0000 C   0  0  0  0  0  0  0  0  0  0  0  0
    1.9233    1.1104    0.0000 C   0  0  0  0  0  0  0  0  0  0  0  0
    1.1387    0.8555    0.0000 N   0  0  0  0  0  0  0  0  0  0  0  0
    0.6538    1.5229    0.0000 C   0  0  0  0  0  0  0  0  0  0  0  0
    1.1387    2.1904    0.0000 N   0  0  0  0  0  0  0  0  0  0  0  0
    1.9233    1.9354    0.0000 C   0  0  0  0  0  0  0  0  0  0  0  0
    2.6378    2.3479    0.0000 C   0  0  0  0  0  0  0  0  0  0  0  0
   -0.1712    1.5229    0.0000 C   0  0  0  0  0  0  0  0  0  0  0  0
   -0.5837    0.8085    0.0000 C   0  0  0  0  0  0  0  0  0  0  0  0
   -1.4087    0.8085    0.0000 C   0  0  0  0  0  0  0  0  0  0  0  0
   -1.8212    1.5229    0.0000 C   0  0  0  0  0  0  0  0  0  0  0  0
   -1.4087    2.2374    0.0000 C   0  0  0  0  0  0  0  0  0  0  0  0
   -0.5837    2.2374    0.0000 C   0  0  0  0  0  0  0  0  0  0  0  0
   -0.1712    2.9519    0.0000 Br  0  0  0  0  0  0  0  0  0  0  0  0
    5.4957    3.1729    0.0000 C   0  0  0  0  0  0  0  0  0  0  0  0
    6.2102    3.5854    0.0000 C   0  0  0  0  0  0  0  0  0  0  0  0
    6.9246    4.8229    0.0000 C   0  0  0  0  0  0  0  0  0  0  0  0
    6.9246    5.6479    0.0000 C   0  0  0  0  0  0  0  0  0  0  0  0
  1  2  1  0  0  0  0
  2  3  1  0  0  0  0
  3  4  1  0  0  0  0
  4  5  1  0  0  0  0
  5  6  1  0  0  0  0
  6  7  1  0  0  0  0
  7  8  4  0  0  0  0
  8  9  4  0  0  0  0
  9 10  4  0  0  0  0
 10 11  1  0  0  0  0
 11 12  1  0  0  0  0
 12 13  2  0  0  0  0
 12 14  1  0  0  0  0
 14 15  4  0  0  0  0
 15 16  4  0  0  0  0
 16 17  4  0  0  0  0
 17 18  4  0  0  0  0
 18 19  4  0  0  0  0
 19 20  4  0  0  0  0
 20 21  4  0  0  0  0
 17 21  4  0  0  0  0
 21 22  4  0  0  0  0
 14 22  4  0  0  0  0
 19 23  1  0  0  0  0
 23 24  4  0  0  0  0
 24 25  4  0  0  0  0
 25 26  4  0  0  0  0
 26 27  4  0  0  0  0
 27 28  4  0  0  0  0
 23 28  4  0  0  0  0
 28 29  1  0  0  0  0
 10 30  4  0  0  0  0
 30 31  4  0  0  0  0
  7 31  4  0  0  0  0
  5 32  1  0  0  0  0
 32 33  1  0  0  0  0
  2 33  1  0  0  0  0
M  STY  1   1 DAT
M  SAL   1  1  20
M  SDT   1 MRV_IMPLICIT_H                                        
M  SDD   1     0.5304   -0.4125    DR    ALL  0       0  
M  SED   1 IMPL_H1
M  END
> <ID>
CPD_3262

$$$$
CPD_3267
  Mrv1822 09091914012D          

 36 39  0  0  1  0            999 V2000
   -7.3262    2.1063    0.0000 C   0  0  0  0  0  0  0  0  0  0  0  0
   -6.9137    2.8207    0.0000 N   0  0  0  0  0  0  0  0  0  0  0  0
   -7.3262    3.5352    0.0000 C   0  0  0  0  0  0  0  0  0  0  0  0
   -6.9137    4.2497    0.0000 C   0  0  0  0  0  0  0  0  0  0  0  0
   -6.0887    4.2497    0.0000 N   0  0  0  0  0  0  0  0  0  0  0  0
   -5.6762    4.9642    0.0000 C   0  0  0  0  0  0  0  0  0  0  0  0
   -4.8512    4.9642    0.0000 C   0  0  0  0  0  0  0  0  0  0  0  0
   -4.4387    5.6786    0.0000 C   0  0  0  0  0  0  0  0  0  0  0  0
   -3.6137    5.6786    0.0000 C   0  0  0  0  0  0  0  0  0  0  0  0
   -3.2012    4.9642    0.0000 C   0  0  0  0  0  0  0  0  0  0  0  0
   -2.3762    4.9642    0.0000 N   0  0  0  0  0  0  0  0  0  0  0  0
   -1.9637    4.2497    0.0000 C   0  0  0  0  0  0  0  0  0  0  0  0
   -2.3762    3.5352    0.0000 O   0  0  0  0  0  0  0  0  0  0  0  0
   -1.1387    4.2497    0.0000 C   0  0  0  0  0  0  0  0  0  0  0  0
   -0.7262    4.9642    0.0000 C   0  0  0  0  0  0  0  0  0  0  0  0
    0.0988    4.9642    0.0000 C   0  0  0  0  0  0  0  0  0  0  0  0
    0.5113    4.2497    0.0000 C   0  0  0  0  0  0  0  0  0  0  0  0
    1.3183    4.0782    0.0000 N   0  0  0  0  0  0  0  0  0  0  0  0
    1.4045    3.2577    0.0000 C   0  0  0  0  0  0  0  0  0  0  0  0
    0.6508    2.9221    0.0000 N   0  0  0  0  0  0  0  0  0  0  0  0
    0.0988    3.5352    0.0000 C   0  0  0  0  0  0  0  0  0  0  0  0
   -0.7262    3.5352    0.0000 C   0  0  0  0  0  0  0  0  0  0  0  0
    2.1190    2.8452    0.0000 C   0  0  1  0  0  0  0  0  0  0  0  0
    2.1190    2.0202    0.0000 N   0  0  0  0  0  0  0  0  0  0  0  0
    2.8334    3.2577    0.0000 C   0  0  0  0  0  0  0  0  0  0  0  0
    3.5479    2.8452    0.0000 C   0  0  0  0  0  0  0  0  0  0  0  0
    4.2624    3.2577    0.0000 C   0  0  0  0  0  0  0  0  0  0  0  0
    4.9769    2.8452    0.0000 C   0  0  0  0  0  0  0  0  0  0  0  0
    5.6913    3.2577    0.0000 N   0  0  0  0  0  0  0  0  0  0  0  0
    6.4058    2.8452    0.0000 C   0  0  0  0  0  0  0  0  0  0  0  0
    7.1203    3.2577    0.0000 C   0  0  0  0  0  0  0  0  0  0  0  0
    6.4058    2.0202    0.0000 O   0  0  0  0  0  0  0  0  0  0  0  0
   -3.6137    4.2497    0.0000 C   0  0  0  0  0  0  0  0  0  0  0  0
   -4.4387    4.2497    0.0000 C   0  0  0  0  0  0  0  0  0  0  0  0
   -5.6762    3.5352    0.0000 C   0  0  0  0  0  0  0  0  0  0  0  0
   -6.0887    2.8207    0.0000 C   0  0  0  0  0  0  0  0  0  0  0  0
  1  2  1  0  0  0  0
  2  3  1  0  0  0  0
  3  4  1  0  0  0  0
  4  5  1  0  0  0  0
  5  6  1  0  0  0  0
  6  7  1  0  0  0  0
  7  8  4  0  0  0  0
  8  9  4  0  0  0  0
  9 10  4  0  0  0  0
 10 11  1  0  0  0  0
 11 12  1  0  0  0  0
 12 13  2  0  0  0  0
 12 14  1  0  0  0  0
 14 15  4  0  0  0  0
 15 16  4  0  0  0  0
 16 17  4  0  0  0  0
 17 18  4  0  0  0  0
 18 19  4  0  0  0  0
 19 20  4  0  0  0  0
 20 21  4  0  0  0  0
 17 21  4  0  0  0  0
 21 22  4  0  0  0  0
 14 22  4  0  0  0  0
 23 19  1  0  0  0  0
 23 24  1  6  0  0  0
 23 25  1  0  0  0  0
 25 26  1  0  0  0  0
 26 27  1  0  0  0  0
 27 28  1  0  0  0  0
 28 29  1  0  0  0  0
 29 30  1  0  0  0  0
 30 31  1  0  0  0  0
 30 32  2  0  0  0  0
 10 33  4  0  0  0  0
 33 34  4  0  0  0  0
  7 34  4  0  0  0  0
  5 35  1  0  0  0  0
 35 36  1  0  0  0  0
  2 36  1  0  0  0  0
M  STY  1   1 DAT
M  SAL   1  1  20
M  SDT   1 MRV_IMPLICIT_H                                        
M  SDD   1     0.5304   -0.4125    DR    ALL  0       0  
M  SED   1 IMPL_H1
M  END
> <ID>
CPD_3267

$$$$
CPD_3272
  Mrv1822 09091914012D          

 28 31  0  0  0  0            999 V2000
   -3.0587    1.4455    0.0000 C   0  0  0  0  0  0  0  0  0  0  0  0
   -2.6462    0.7310    0.0000 C   0  0  0  0  0  0  0  0  0  0  0  0
   -1.8212    0.7310    0.0000 O   0  0  0  0  0  0  0  0  0  0  0  0
   -1.4087    0.0165    0.0000 C   0  0  0  0  0  0  0  0  0  0  0  0
   -0.5837    0.0165    0.0000 C   0  0  0  0  0  0  0  0  0  0  0  0
   -0.1712   -0.6979    0.0000 C   0  0  0  0  0  0  0  0  0  0  0  0
   -0.5837   -1.4124    0.0000 C   0  0  0  0  0  0  0  0  0  0  0  0
   -1.4087   -1.4124    0.0000 C   0  0  0  0  0  0  0  0  0  0  0  0
   -1.8212   -2.1269    0.0000 O   0  0  0  0  0  0  0  0  0  0  0  0
   -1.4087   -2.8414    0.0000 C   0  0  0  0  0  0  0  0  0  0  0  0
   -1.8212   -3.5558    0.0000 C   0  0  0  0  0  0  0  0  0  0  0  0
   -1.8212   -0.6979    0.0000 C   0  0  0  0  0  0  0  0  0  0  0  0
   -2.6462   -0.6979    0.0000 N   0  0  0  0  0  0  0  0  0  0  0  0
   -3.1311   -1.3654    0.0000 C   0  0  0  0  0  0  0  0  0  0  0  0
   -3.9157   -1.1104    0.0000 C   0  0  0  0  0  0  0  0  0  0  0  0
   -3.9157   -0.2854    0.0000 C   0  0  0  0  0  0  0  0  0  0  0  0
   -3.1311   -0.0305    0.0000 C   0  0  0  0  0  0  0  0  0  0  0  0
    0.6538   -0.6979    0.0000 C   0  0  0  0  0  0  0  0  0  0  0  0
    1.1387   -0.0305    0.0000 N   0  0  0  0  0  0  0  0  0  0  0  0
    1.9233   -0.2854    0.0000 C   0  0  0  0  0  0  0  0  0  0  0  0
    2.6378    0.1271    0.0000 C   0  0  0  0  0  0  0  0  0  0  0  0
    3.3523   -0.2854    0.0000 C   0  0  0  0  0  0  0  0  0  0  0  0
    3.3523   -1.1104    0.0000 C   0  0  0  0  0  0  0  0  0  0  0  0
    2.6378   -1.5229    0.0000 C   0  0  0  0  0  0  0  0  0  0  0  0
    1.9233   -1.1104    0.0000 C   0  0  0  0  0  0  0  0  0  0  0  0
    1.1387   -1.3654    0.0000 O   0  0  0  0  0  0  0  0  0  0  0  0
    4.0668   -1.5229    0.0000 C   0  0  0  0  0  0  0  0  0  0  0  0
    4.7812   -1.9354    0.0000 N   0  0  0  0  0  0  0  0  0  0  0  0
  1  2  1  0  0  0  0
  2  3  1  0  0  0  0
  3  4  1  0  0  0  0
  4  5  4  0  0  0  0
  5  6  4  0  0  0  0
  6  7  4  0  0  0  0
  7  8  4  0  0  0  0
  8  9  1  0  0  0  0
  9 10  1  0  0  0  0
 10 11  1  0  0  0  0
  8 12  4  0  0  0  0
  4 12  4  0  0  0  0
 12 13  1  0  0  0  0
 13 14  4  0  0  0  0
 14 15  4  0  0  0  0
 15 16  4  0  0  0  0
 16 17  4  0  0  0  0
 13 17  4  0  0  0  0
  6 18  1  0  0  0  0
 18 19  4  0  0  0  0
 19 20  4  0  0  0  0
 20 21  4  0  0  0  0
 21 22  4  0  0  0  0
 22 23  4  0  0  0  0
 23 24  4  0  0  0  0
 24 25  4  0  0  0  0
 20 25  4  0  0  0  0
 25 26  4  0  0  0  0
 18 26  4  0  0  0  0
 23 27  1  0  0  0  0
 27 28  3  0  0  0  0
M  END
> <ID>
CPD_3272

$$$$
CPD_3277
  Mrv1822 09091914012D          

 30 34  0  0  0  0            999 V2000
   -5.1229   -1.1428    0.0000 Cl  0  0  0  0  0  0  0  0  0  0  0  0
   -4.3692   -0.8072    0.0000 C   0  0  0  0  0  0  0  0  0  0  0  0
   -4.2830    0.0133    0.0000 C   0  0  0  0  0  0  0  0  0  0  0  0
   -3.5293    0.3488    0.0000 C   0  0  0  0  0  0  0  0  0  0  0  0
   -2.8619   -0.1361    0.0000 C   0  0  0  0  0  0  0  0  0  0  0  0
   -2.1082    0.1995    0.0000 C   0  0  0  0  0  0  0  0  0  0  0  0
   -1.4407   -0.2854    0.0000 N   0  0  0  0  0  0  0  0  0  0  0  0
   -0.6561   -0.0305    0.0000 C   0  0  0  0  0  0  0  0  0  0  0  0
   -0.1712   -0.6979    0.0000 C   0  0  0  0  0  0  0  0  0  0  0  0
    0.6538   -0.6979    0.0000 C   0  0  0  0  0  0  0  0  0  0  0  0
    1.1387   -0.0305    0.0000 N   0  0  0  0  0  0  0  0  0  0  0  0
    1.9233   -0.2854    0.0000 C   0  0  0  0  0  0  0  0  0  0  0  0
    2.6378    0.1271    0.0000 C   0  0  0  0  0  0  0  0  0  0  0  0
    3.3523   -0.2854    0.0000 C   0  0  0  0  0  0  0  0  0  0  0  0
    3.3523   -1.1104    0.0000 C   0  0  0  0  0  0  0  0  0  0  0  0
    2.6378   -1.5229    0.0000 C   0  0  0  0  0  0  0  0  0  0  0  0
    1.9233   -1.1104    0.0000 C   0  0  0  0  0  0  0  0  0  0  0  0
    1.1387   -1.3654    0.0000 O   0  0  0  0  0  0  0  0  0  0  0  0
    4.0668   -1.5229    0.0000 C   0  0  0  0  0  0  0  0  0  0  0  0
    4.7812   -1.9354    0.0000 N   0  0  0  0  0  0  0  0  0  0  0  0
   -0.6561   -1.3654    0.0000 C   0  0  0  0  0  0  0  0  0  0  0  0
   -1.4407   -1.1104    0.0000 N   0  0  0  0  0  0  0  0  0  0  0  0
   -0.4012   -2.1500    0.0000 C   0  0  0  0  0  0  0  0  0  0  0  0
    0.4058   -2.3215    0.0000 C   0  0  0  0  0  0  0  0  0  0  0  0
    0.6607   -3.1062    0.0000 C   0  0  0  0  0  0  0  0  0  0  0  0
    0.1087   -3.7192    0.0000 C   0  0  0  0  0  0  0  0  0  0  0  0
   -0.6983   -3.5477    0.0000 C   0  0  0  0  0  0  0  0  0  0  0  0
   -0.9532   -2.7631    0.0000 C   0  0  0  0  0  0  0  0  0  0  0  0
   -2.9481   -0.9566    0.0000 C   0  0  0  0  0  0  0  0  0  0  0  0
   -3.7018   -1.2921    0.0000 C   0  0  0  0  0  0  0  0  0  0  0  0
  1  2  1  0  0  0  0
  2  3  4  0  0  0  0
  3  4  4  0  0  0  0
  4  5  4  0  0  0  0
  5  6  1  0  0  0  0
  6  7  1  0  0  0  0
  7  8  4  0  0  0  0
  8  9  4  0  0  0  0
  9 10  1  0  0  0  0
 10 11  4  0  0  0  0
 11 12  4  0  0  0  0
 12 13  4  0  0  0  0
 13 14  4  0  0  0  0
 14 15  4  0  0  0  0
 15 16  4  0  0  0  0
 16 17  4  0  0  0  0
 12 17  4  0  0  0  0
 17 18  4  0  0  0  0
 10 18  4  0  0  0  0
 15 19  1  0  0  0  0
 19 20  3  0  0  0  0
  9 21  4  0  0  0  0
 21 22  4  0  0  0  0
  7 22  4  0  0  0  0
 21 23  1  0  0  0  0
 23 24  4  0  0  0  0
 24 25  4  0  0  0  0
 25 26  4  0  0  0  0
 26 27  4  0  0  0  0
 27 28  4  0  0  0  0
 23 28  4  0  0  0  0
  5 29  4  0  0  0  0
 29 30  4  0  0  0  0
  2 30  4  0  0  0  0
M  END
> <ID>
CPD_3277

$$$$
CPD_3282
  Mrv1822 09091914012D          

 24 28  0  0  0  0            999 V2000
    9.0619    0.4218    0.0000 N   0  0  0  0  0  0  0  0  0  0  0  0
    8.2773    0.1668    0.0000 C   0  0  0  0  0  0  0  0  0  0  0  0
    7.4926   -0.0881    0.0000 C   0  0  0  0  0  0  0  0  0  0  0  0
    7.3211   -0.8951    0.0000 C   0  0  0  0  0  0  0  0  0  0  0  0
    6.5365   -1.1500    0.0000 C   0  0  0  0  0  0  0  0  0  0  0  0
    5.9234   -0.5980    0.0000 C   0  0  0  0  0  0  0  0  0  0  0  0
    5.1029   -0.6842    0.0000 N   0  0  0  0  0  0  0  0  0  0  0  0
    4.7674    0.0694    0.0000 C   0  0  0  0  0  0  0  0  0  0  0  0
    5.3805    0.6215    0.0000 O   0  0  0  0  0  0  0  0  0  0  0  0
    6.0949    0.2090    0.0000 C   0  0  0  0  0  0  0  0  0  0  0  0
    6.8795    0.4639    0.0000 C   0  0  0  0  0  0  0  0  0  0  0  0
    3.9604    0.2410    0.0000 C   0  0  0  0  0  0  0  0  0  0  0  0
    3.7054    1.0256    0.0000 C   0  0  0  0  0  0  0  0  0  0  0  0
    2.8985    1.1971    0.0000 C   0  0  0  0  0  0  0  0  0  0  0  0
    2.3464    0.5840    0.0000 C   0  0  0  0  0  0  0  0  0  0  0  0
    2.6014   -0.2006    0.0000 C   0  0  0  0  0  0  0  0  0  0  0  0
    1.9339   -0.6855    0.0000 C   0  0  0  0  0  0  0  0  0  0  0  0
    1.2665   -0.2006    0.0000 C   0  0  0  0  0  0  0  0  0  0  0  0
    0.4595   -0.3721    0.0000 C   0  0  0  0  0  0  0  0  0  0  0  0
   -0.0925    0.2410    0.0000 C   0  0  0  0  0  0  0  0  0  0  0  0
    0.1624    1.0256    0.0000 C   0  0  0  0  0  0  0  0  0  0  0  0
    0.9694    1.1971    0.0000 C   0  0  0  0  0  0  0  0  0  0  0  0
    1.5214    0.5840    0.0000 C   0  0  0  0  0  0  0  0  0  0  0  0
    3.4084   -0.3721    0.0000 C   0  0  0  0  0  0  0  0  0  0  0  0
  1  2  3  0  0  0  0
  2  3  1  0  0  0  0
  3  4  4  0  0  0  0
  4  5  4  0  0  0  0
  5  6  4  0  0  0  0
  6  7  4  0  0  0  0
  7  8  4  0  0  0  0
  8  9  4  0  0  0  0
  9 10  4  0  0  0  0
  6 10  4  0  0  0  0
 10 11  4  0  0  0  0
  3 11  4  0  0  0  0
  8 12  1  0  0  0  0
 12 13  4  0  0  0  0
 13 14  4  0  0  0  0
 14 15  4  0  0  0  0
 15 16  4  0  0  0  0
 16 17  1  0  0  0  0
 17 18  1  0  0  0  0
 18 19  4  0  0  0  0
 19 20  4  0  0  0  0
 20 21  4  0  0  0  0
 21 22  4  0  0  0  0
 22 23  4  0  0  0  0
 15 23  1  0  0  0  0
 18 23  4  0  0  0  0
 16 24  4  0  0  0  0
 12 24  4  0  0  0  0
M  END
> <ID>
CPD_3282

$$$$
CPD_3287
  Mrv1822 09091914012D          

 27 28  0  0  0  0            999 V2000
   -1.4289   -4.1250    0.0000 C   0  0  0  0  0  0  0  0  0  0  0  0
   -0.7145   -3.7125    0.0000 C   0  0  0  0  0  0  0  0  0  0  0  0
   -0.7145   -2.8875    0.0000 O   0  0  0  0  0  0  0  0  0  0  0  0
    0.0000   -2.4750    0.0000 C   0  0  0  0  0  0  0  0  0  0  0  0
    0.7145   -2.8875    0.0000 O   0  0  0  0  0  0  0  0  0  0  0  0
    0.0000   -1.6500    0.0000 C   0  0  0  0  0  0  0  0  0  0  0  0
    0.7145   -1.2375    0.0000 C   0  0  0  0  0  0  0  0  0  0  0  0
    1.4289   -1.6500    0.0000 N   0  0  0  0  0  0  0  0  0  0  0  0
    1.4289   -2.4750    0.0000 C   0  0  0  0  0  0  0  0  0  0  0  0
    1.0934   -3.2287    0.0000 S   0  0  0  0  0  0  0  0  0  0  0  0
    2.1434   -2.8875    0.0000 N   0  0  0  0  0  0  0  0  0  0  0  0
    2.1434   -3.7125    0.0000 C   0  0  0  0  0  0  0  0  0  0  0  0
    1.4289   -4.1250    0.0000 C   0  0  0  0  0  0  0  0  0  0  0  0
    1.4289   -4.9500    0.0000 C   0  0  0  0  0  0  0  0  0  0  0  0
    0.7145   -5.3625    0.0000 F   0  0  0  0  0  0  0  0  0  0  0  0
    2.1434   -5.3625    0.0000 C   0  0  0  0  0  0  0  0  0  0  0  0
    2.8579   -4.9500    0.0000 C   0  0  0  0  0  0  0  0  0  0  0  0
    3.5724   -5.3625    0.0000 C   0  0  0  0  0  0  0  0  0  0  0  0
    2.8579   -4.1250    0.0000 C   0  0  0  0  0  0  0  0  0  0  0  0
    0.7145   -0.4125    0.0000 C   0  0  0  0  0  0  0  0  0  0  0  0
    0.0000    0.0000    0.0000 C   0  0  0  0  0  0  0  0  0  0  0  0
    0.0000    0.8250    0.0000 C   0  0  0  0  0  0  0  0  0  0  0  0
    0.7145    1.2375    0.0000 C   0  0  0  0  0  0  0  0  0  0  0  0
    0.7145    2.0625    0.0000 Br  0  0  0  0  0  0  0  0  0  0  0  0
    1.4289    0.8250    0.0000 C   0  0  0  0  0  0  0  0  0  0  0  0
    1.4289    0.0000    0.0000 C   0  0  0  0  0  0  0  0  0  0  0  0
    2.1434   -0.4125    0.0000 C   0  0  0  0  0  0  0  0  0  0  0  0
  1  2  1  0  0  0  0
  2  3  1  0  0  0  0
  3  4  1  0  0  0  0
  4  5  2  0  0  0  0
  4  6  1  0  0  0  0
  6  7  1  0  0  0  0
  7  8  1  0  0  0  0
  8  9  1  0  0  0  0
  9 10  2  0  0  0  0
  9 11  1  0  0  0  0
 11 12  1  0  0  0  0
 12 13  2  0  0  0  0
 13 14  1  0  0  0  0
 14 15  1  0  0  0  0
 14 16  2  0  0  0  0
 16 17  1  0  0  0  0
 17 18  1  0  0  0  0
 17 19  2  0  0  0  0
 12 19  1  0  0  0  0
  7 20  1  0  0  0  0
 20 21  2  0  0  0  0
 21 22  1  0  0  0  0
 22 23  2  0  0  0  0
 23 24  1  0  0  0  0
 23 25  1  0  0  0  0
 25 26  2  0  0  0  0
 20 26  1  0  0  0  0
 26 27  1  0  0  0  0
M  END
> <ID>
CPD_3287

$$$$
CPD_3292
  Mrv1822 09091914012D          

 32 33  0  0  0  0            999 V2000
   -0.7145   -1.2375    0.0000 C   0  0  0  0  0  0  0  0  0  0  0  0
   -0.0000   -1.6500    0.0000 C   0  0  0  0  0  0  0  0  0  0  0  0
    0.7145   -1.2375    0.0000 O   0  0  0  0  0  0  0  0  0  0  0  0
   -0.0000   -2.4750    0.0000 N   0  0  0  0  0  0  0  0  0  0  0  0
    0.7145   -2.8875    0.0000 C   0  0  0  0  0  0  0  0  0  0  0  0
    0.7145   -3.7125    0.0000 C   0  0  0  0  0  0  0  0  0  0  0  0
    1.4289   -4.1250    0.0000 O   0  0  0  0  0  0  0  0  0  0  0  0
    1.4289   -4.9500    0.0000 C   0  0  0  0  0  0  0  0  0  0  0  0
    2.1434   -5.3625    0.0000 C   0  0  0  0  0  0  0  0  0  0  0  0
    2.8579   -4.9500    0.0000 O   0  0  0  0  0  0  0  0  0  0  0  0
    3.5724   -5.3625    0.0000 C   0  0  0  0  0  0  0  0  0  0  0  0
    4.2868   -4.9500    0.0000 C   0  0  0  0  0  0  0  0  0  0  0  0
    5.0013   -5.3625    0.0000 N   0  0  0  0  0  0  0  0  0  0  0  0
    5.7158   -4.9500    0.0000 C   0  0  0  0  0  0  0  0  0  0  0  0
    5.7158   -4.1250    0.0000 C   0  0  0  0  0  0  0  0  0  0  0  0
    6.4302   -5.3625    0.0000 O   0  0  0  0  0  0  0  0  0  0  0  0
    2.1434   -6.1875    0.0000 C   0  0  0  0  0  0  0  0  0  0  0  0
    1.4289   -6.6000    0.0000 C   0  0  0  0  0  0  0  0  0  0  0  0
    1.4289   -7.4250    0.0000 N   0  0  0  0  0  0  0  0  0  0  0  0
    0.7145   -7.8375    0.0000 C   0  0  0  0  0  0  0  0  0  0  0  0
    0.0000   -7.4250    0.0000 S   0  0  0  0  0  0  0  0  0  0  0  0
    0.7145   -8.6625    0.0000 N   0  0  0  0  0  0  0  0  0  0  0  0
    0.0000   -9.0750    0.0000 C   0  0  0  0  0  0  0  0  0  0  0  0
    0.0000   -9.9000    0.0000 C   0  0  0  0  0  0  0  0  0  0  0  0
   -0.7145  -10.3125    0.0000 C   0  0  0  0  0  0  0  0  0  0  0  0
   -0.7145  -11.1375    0.0000 F   0  0  0  0  0  0  0  0  0  0  0  0
   -1.4289   -9.9000    0.0000 C   0  0  0  0  0  0  0  0  0  0  0  0
   -1.4289   -9.0750    0.0000 C   0  0  0  0  0  0  0  0  0  0  0  0
   -2.1434   -8.6625    0.0000 C   0  0  0  0  0  0  0  0  0  0  0  0
   -0.7145   -8.6625    0.0000 C   0  0  0  0  0  0  0  0  0  0  0  0
    0.7145   -6.1875    0.0000 C   0  0  0  0  0  0  0  0  0  0  0  0
    0.7145   -5.3625    0.0000 C   0  0  0  0  0  0  0  0  0  0  0  0
  1  2  1  0  0  0  0
  2  3  2  0  0  0  0
  2  4  1  0  0  0  0
  4  5  1  0  0  0  0
  5  6  1  0  0  0  0
  6  7  1  0  0  0  0
  7  8  1  0  0  0  0
  8  9  2  0  0  0  0
  9 10  1  0  0  0  0
 10 11  1  0  0  0  0
 11 12  1  0  0  0  0
 12 13  1  0  0  0  0
 13 14  1  0  0  0  0
 14 15  1  0  0  0  0
 14 16  2  0  0  0  0
  9 17  1  0  0  0  0
 17 18  2  0  0  0  0
 18 19  1  0  0  0  0
 19 20  1  0  0  0  0
 20 21  2  0  0  0  0
 20 22  1  0  0  0  0
 22 23  1  0  0  0  0
 23 24  2  0  0  0  0
 24 25  1  0  0  0  0
 25 26  1  0  0  0  0
 25 27  2  0  0  0  0
 27 28  1  0  0  0  0
 28 29  1  0  0  0  0
 28 30  2  0  0  0  0
 23 30  1  0  0  0  0
 18 31  1  0  0  0  0
 31 32  2  0  0  0  0
  8 32  1  0  0  0  0
M  END
> <ID>
CPD_3292

$$$$
CPD_3297
  Mrv1822 09091914012D          

 23 25  0  0  0  0            999 V2000
    1.7111   -2.5248    0.0000 O   0  0  0  0  0  0  0  0  0  0  0  0
    2.2414   -3.1567    0.0000 C   0  0  0  0  0  0  0  0  0  0  0  0
    2.9559   -3.5692    0.0000 C   0  0  0  0  0  0  0  0  0  0  0  0
    2.9559   -4.3942    0.0000 C   0  0  0  0  0  0  0  0  0  0  0  0
    2.2414   -4.8067    0.0000 C   0  0  0  0  0  0  0  0  0  0  0  0
    1.5269   -4.3942    0.0000 O   0  0  0  0  0  0  0  0  0  0  0  0
    1.5269   -3.5692    0.0000 C   0  0  0  0  0  0  0  0  0  0  0  0
    0.8125   -3.1567    0.0000 O   0  0  0  0  0  0  0  0  0  0  0  0
    2.7717   -2.5248    0.0000 C   0  0  0  0  0  0  0  0  0  0  0  0
    2.4895   -1.7495    0.0000 O   0  0  0  0  0  0  0  0  0  0  0  0
    3.5842   -2.6680    0.0000 C   0  0  0  0  0  0  0  0  0  0  0  0
    4.1145   -2.0360    0.0000 C   0  0  0  0  0  0  0  0  0  0  0  0
    4.9269   -2.1793    0.0000 C   0  0  0  0  0  0  0  0  0  0  0  0
    5.4572   -1.5473    0.0000 Cl  0  0  0  0  0  0  0  0  0  0  0  0
    5.2091   -2.9545    0.0000 C   0  0  0  0  0  0  0  0  0  0  0  0
    4.6788   -3.5865    0.0000 C   0  0  0  0  0  0  0  0  0  0  0  0
    3.8663   -3.4433    0.0000 C   0  0  0  0  0  0  0  0  0  0  0  0
    6.0216   -3.0978    0.0000 N   0  0  0  0  0  0  0  0  0  0  0  0
    6.5519   -2.4658    0.0000 C   0  0  0  0  0  0  0  0  0  0  0  0
    7.3643   -2.6091    0.0000 C   0  0  0  0  0  0  0  0  0  0  0  0
    7.6465   -3.3843    0.0000 N   0  0  0  0  0  0  0  0  0  0  0  0
    7.1162   -4.0163    0.0000 C   0  0  0  0  0  0  0  0  0  0  0  0
    6.3037   -3.8730    0.0000 C   0  0  0  0  0  0  0  0  0  0  0  0
  1  2  1  0  0  0  0
  2  3  1  0  0  0  0
  3  4  1  0  0  0  0
  4  5  1  0  0  0  0
  5  6  1  0  0  0  0
  6  7  1  0  0  0  0
  2  7  1  0  0  0  0
  7  8  2  0  0  0  0
  2  9  1  0  0  0  0
  9 10  2  0  0  0  0
  9 11  1  0  0  0  0
 11 12  2  0  0  0  0
 12 13  1  0  0  0  0
 13 14  1  0  0  0  0
 13 15  2  0  0  0  0
 15 16  1  0  0  0  0
 16 17  2  0  0  0  0
 11 17  1  0  0  0  0
 15 18  1  0  0  0  0
 18 19  1  0  0  0  0
 19 20  1  0  0  0  0
 20 21  1  0  0  0  0
 21 22  1  0  0  0  0
 22 23  1  0  0  0  0
 18 23  1  0  0  0  0
M  END
> <ID>
CPD_3297

$$$$
CPD_3302
  Mrv1822 09091914012D          

 28 30  0  0  0  0            999 V2000
    1.9592   -1.0180    0.0000 O   0  0  0  0  0  0  0  0  0  0  0  0
    1.4289   -1.6500    0.0000 C   0  0  0  0  0  0  0  0  0  0  0  0
    1.1468   -2.4252    0.0000 C   0  0  0  0  0  0  0  0  0  0  0  0
    0.3343   -2.5685    0.0000 C   0  0  0  0  0  0  0  0  0  0  0  0
   -0.1960   -1.9365    0.0000 C   0  0  0  0  0  0  0  0  0  0  0  0
    0.0862   -1.1613    0.0000 O   0  0  0  0  0  0  0  0  0  0  0  0
    0.8986   -1.0180    0.0000 C   0  0  0  0  0  0  0  0  0  0  0  0
    1.1808   -0.2428    0.0000 O   0  0  0  0  0  0  0  0  0  0  0  0
    2.1434   -2.0625    0.0000 C   0  0  0  0  0  0  0  0  0  0  0  0
    2.1434   -2.8875    0.0000 O   0  0  0  0  0  0  0  0  0  0  0  0
    2.8579   -1.6500    0.0000 C   0  0  0  0  0  0  0  0  0  0  0  0
    3.5724   -2.0625    0.0000 N   0  0  0  0  0  0  0  0  0  0  0  0
    4.2868   -1.6500    0.0000 C   0  0  0  0  0  0  0  0  0  0  0  0
    4.2868   -0.8250    0.0000 O   0  0  0  0  0  0  0  0  0  0  0  0
    5.0013   -2.0625    0.0000 C   0  0  0  0  0  0  0  0  0  0  0  0
    5.7158   -1.6500    0.0000 S   0  0  0  0  0  0  0  0  0  0  0  0
    6.4302   -2.0625    0.0000 C   0  0  0  0  0  0  0  0  0  0  0  0
    7.1447   -1.6500    0.0000 C   0  0  0  0  0  0  0  0  0  0  0  0
    7.8592   -2.0625    0.0000 C   0  0  0  0  0  0  0  0  0  0  0  0
    7.8592   -2.8875    0.0000 C   0  0  0  0  0  0  0  0  0  0  0  0
    7.1447   -3.3000    0.0000 C   0  0  0  0  0  0  0  0  0  0  0  0
    6.4302   -2.8875    0.0000 C   0  0  0  0  0  0  0  0  0  0  0  0
    5.0013   -2.8875    0.0000 C   0  0  0  0  0  0  0  0  0  0  0  0
    5.7158   -3.3000    0.0000 C   0  0  0  0  0  0  0  0  0  0  0  0
    5.7158   -4.1250    0.0000 C   0  0  0  0  0  0  0  0  0  0  0  0
    5.0013   -4.5375    0.0000 C   0  0  0  0  0  0  0  0  0  0  0  0
    4.2868   -4.1250    0.0000 C   0  0  0  0  0  0  0  0  0  0  0  0
    4.2868   -3.3000    0.0000 C   0  0  0  0  0  0  0  0  0  0  0  0
  1  2  1  0  0  0  0
  2  3  1  0  0  0  0
  3  4  1  0  0  0  0
  4  5  1  0  0  0  0
  5  6  1  0  0  0  0
  6  7  1  0  0  0  0
  2  7  1  0  0  0  0
  7  8  2  0  0  0  0
  2  9  1  0  0  0  0
  9 10  2  0  0  0  0
  9 11  1  0  0  0  0
 11 12  1  0  0  0  0
 12 13  1  0  0  0  0
 13 14  2  0  0  0  0
 13 15  1  0  0  0  0
 15 16  1  0  0  0  0
 16 17  1  0  0  0  0
 17 18  2  0  0  0  0
 18 19  1  0  0  0  0
 19 20  2  0  0  0  0
 20 21  1  0  0  0  0
 21 22  2  0  0  0  0
 17 22  1  0  0  0  0
 15 23  1  0  0  0  0
 23 24  2  0  0  0  0
 24 25  1  0  0  0  0
 25 26  2  0  0  0  0
 26 27  1  0  0  0  0
 27 28  2  0  0  0  0
 23 28  1  0  0  0  0
M  END
> <ID>
CPD_3302

$$$$
CPD_3307
  Mrv1822 09091914012D          

 20 21  0  0  0  0            999 V2000
   -0.7263    2.1295    0.0000 C   0  0  0  0  0  0  0  0  0  0  0  0
   -0.7263    1.3045    0.0000 C   0  0  0  0  0  0  0  0  0  0  0  0
   -1.4408    0.8920    0.0000 O   0  0  0  0  0  0  0  0  0  0  0  0
   -1.4408    0.0670    0.0000 C   0  0  0  0  0  0  0  0  0  0  0  0
   -0.7263   -0.3455    0.0000 N   0  0  0  0  0  0  0  0  0  0  0  0
   -0.7263   -1.1705    0.0000 C   0  0  0  0  0  0  0  0  0  0  0  0
   -1.4408   -1.5830    0.0000 C   0  0  0  0  0  0  0  0  0  0  0  0
   -1.4408   -2.4080    0.0000 Br  0  0  0  0  0  0  0  0  0  0  0  0
   -2.1552   -1.1705    0.0000 C   0  0  0  0  0  0  0  0  0  0  0  0
   -2.1552   -0.3455    0.0000 C   0  0  0  0  0  0  0  0  0  0  0  0
   -2.8697    0.0670    0.0000 C   0  0  0  0  0  0  0  0  0  0  0  0
   -2.8697    0.8920    0.0000 O   0  0  0  0  0  0  0  0  0  0  0  0
   -3.5842   -0.3455    0.0000 C   0  0  0  0  0  0  0  0  0  0  0  0
   -3.8663    0.4298    0.0000 O   0  0  0  0  0  0  0  0  0  0  0  0
   -3.0539   -0.9775    0.0000 C   0  0  0  0  0  0  0  0  0  0  0  0
   -3.3360   -1.7527    0.0000 C   0  0  0  0  0  0  0  0  0  0  0  0
   -4.1485   -1.8960    0.0000 C   0  0  0  0  0  0  0  0  0  0  0  0
   -4.6788   -1.2640    0.0000 O   0  0  0  0  0  0  0  0  0  0  0  0
   -4.3966   -0.4887    0.0000 C   0  0  0  0  0  0  0  0  0  0  0  0
   -4.9269    0.1433    0.0000 O   0  0  0  0  0  0  0  0  0  0  0  0
  1  2  1  0  0  0  0
  2  3  1  0  0  0  0
  3  4  1  0  0  0  0
  4  5  2  0  0  0  0
  5  6  1  0  0  0  0
  6  7  2  0  0  0  0
  7  8  1  0  0  0  0
  7  9  1  0  0  0  0
  9 10  2  0  0  0  0
  4 10  1  0  0  0  0
 10 11  1  0  0  0  0
 11 12  2  0  0  0  0
 11 13  1  0  0  0  0
 13 14  1  0  0  0  0
 13 15  1  0  0  0  0
 15 16  1  0  0  0  0
 16 17  1  0  0  0  0
 17 18  1  0  0  0  0
 18 19  1  0  0  0  0
 13 19  1  0  0  0  0
 19 20  2  0  0  0  0
M  END
> <ID>
CPD_3307

$$$$
CPD_3312
  Mrv1822 09091914012D          

 22 22  0  0  0  0            999 V2000
    2.3178   -3.5014    0.0000 C   0  0  0  0  0  0  0  0  0  0  0  0
    2.8579   -4.1250    0.0000 O   0  0  0  0  0  0  0  0  0  0  0  0
    3.6680   -3.9691    0.0000 C   0  0  0  0  0  0  0  0  0  0  0  0
    3.9381   -3.1895    0.0000 O   0  0  0  0  0  0  0  0  0  0  0  0
    4.2081   -4.5927    0.0000 C   0  0  0  0  0  0  0  0  0  0  0  0
    5.0182   -4.4368    0.0000 C   0  0  0  0  0  0  0  0  0  0  0  0
    5.5583   -5.0605    0.0000 C   0  0  0  0  0  0  0  0  0  0  0  0
    6.3685   -4.9046    0.0000 N   0  0  0  0  0  0  0  0  0  0  0  0
    6.9086   -5.5282    0.0000 C   0  0  0  0  0  0  0  0  0  0  0  0
    7.7187   -5.3723    0.0000 C   0  0  0  0  0  0  0  0  0  0  0  0
    8.2588   -5.9959    0.0000 C   0  0  0  0  0  0  0  0  0  0  0  0
    7.9887   -6.7755    0.0000 C   0  0  0  0  0  0  0  0  0  0  0  0
    8.5288   -7.3991    0.0000 F   0  0  0  0  0  0  0  0  0  0  0  0
    7.1786   -6.9314    0.0000 C   0  0  0  0  0  0  0  0  0  0  0  0
    6.6385   -6.3077    0.0000 C   0  0  0  0  0  0  0  0  0  0  0  0
    6.6385   -4.1250    0.0000 S   0  0  0  0  0  0  0  0  0  0  0  0
    7.4181   -4.3950    0.0000 C   0  0  0  0  0  0  0  0  0  0  0  0
    5.8590   -3.8550    0.0000 O   0  0  0  0  0  0  0  0  0  0  0  0
    6.9086   -3.3454    0.0000 O   0  0  0  0  0  0  0  0  0  0  0  0
    3.9381   -5.3723    0.0000 C   0  0  0  0  0  0  0  0  0  0  0  0
    4.4782   -5.9959    0.0000 C   0  0  0  0  0  0  0  0  0  0  0  0
    3.1279   -5.5282    0.0000 O   0  0  0  0  0  0  0  0  0  0  0  0
  1  2  1  0  0  0  0
  2  3  1  0  0  0  0
  3  4  2  0  0  0  0
  3  5  1  0  0  0  0
  5  6  1  0  0  0  0
  6  7  1  0  0  0  0
  7  8  1  0  0  0  0
  8  9  1  0  0  0  0
  9 10  2  0  0  0  0
 10 11  1  0  0  0  0
 11 12  2  0  0  0  0
 12 13  1  0  0  0  0
 12 14  1  0  0  0  0
 14 15  2  0  0  0  0
  9 15  1  0  0  0  0
  8 16  1  0  0  0  0
 16 17  1  0  0  0  0
 16 18  2  0  0  0  0
 16 19  2  0  0  0  0
  5 20  1  0  0  0  0
 20 21  1  0  0  0  0
 20 22  2  0  0  0  0
M  END
> <ID>
CPD_3312

$$$$
CPD_3317
  Mrv1822 09091914012D          

 36 38  0  0  0  0            999 V2000
   -2.8579   -1.6500    0.0000 C   0  0  0  0  0  0  0  0  0  0  0  0
   -2.1434   -1.2375    0.0000 O   0  0  0  0  0  0  0  0  0  0  0  0
   -2.1434   -0.4125    0.0000 C   0  0  0  0  0  0  0  0  0  0  0  0
   -2.8579   -0.0000    0.0000 O   0  0  0  0  0  0  0  0  0  0  0  0
   -1.4289   -0.0000    0.0000 C   0  0  0  0  0  0  0  0  0  0  0  0
   -0.7145   -0.4125    0.0000 C   0  0  0  0  0  0  0  0  0  0  0  0
    0.0000   -0.0000    0.0000 C   0  0  0  0  0  0  0  0  0  0  0  0
    0.7145   -0.4125    0.0000 N   0  0  0  0  0  0  0  0  0  0  0  0
    1.4289   -0.0000    0.0000 C   0  0  0  0  0  0  0  0  0  0  0  0
    1.4289    0.8250    0.0000 C   0  0  0  0  0  0  0  0  0  0  0  0
    2.1434    1.2375    0.0000 C   0  0  0  0  0  0  0  0  0  0  0  0
    2.8579    0.8250    0.0000 C   0  0  0  0  0  0  0  0  0  0  0  0
    3.5724    1.2375    0.0000 F   0  0  0  0  0  0  0  0  0  0  0  0
    2.8579   -0.0000    0.0000 C   0  0  0  0  0  0  0  0  0  0  0  0
    2.1434   -0.4125    0.0000 C   0  0  0  0  0  0  0  0  0  0  0  0
    0.7145   -1.2375    0.0000 S   0  0  0  0  0  0  0  0  0  0  0  0
   -0.1105   -1.2375    0.0000 C   0  0  0  0  0  0  0  0  0  0  0  0
    1.5395   -1.2375    0.0000 O   0  0  0  0  0  0  0  0  0  0  0  0
    0.7145   -2.0625    0.0000 O   0  0  0  0  0  0  0  0  0  0  0  0
   -1.4289    0.8250    0.0000 C   0  0  0  0  0  0  0  0  0  0  0  0
   -0.7145    1.2375    0.0000 O   0  0  0  0  0  0  0  0  0  0  0  0
   -2.1434    1.2375    0.0000 C   0  0  0  0  0  0  0  0  0  0  0  0
   -2.8579    0.8250    0.0000 N   0  0  0  0  0  0  0  0  0  0  0  0
   -3.5724    1.2375    0.0000 N   0  0  0  0  0  0  0  0  0  0  0  0
   -3.5724    2.0625    0.0000 C   0  0  0  0  0  0  0  0  0  0  0  0
   -2.8579    2.4750    0.0000 C   0  0  0  0  0  0  0  0  0  0  0  0
   -2.1434    2.0625    0.0000 C   0  0  0  0  0  0  0  0  0  0  0  0
   -1.4289    2.4750    0.0000 O   0  0  0  0  0  0  0  0  0  0  0  0
   -4.2868    0.8250    0.0000 C   0  0  0  0  0  0  0  0  0  0  0  0
   -4.2868   -0.0000    0.0000 C   0  0  0  0  0  0  0  0  0  0  0  0
   -5.0013   -0.4125    0.0000 C   0  0  0  0  0  0  0  0  0  0  0  0
   -5.7158   -0.0000    0.0000 C   0  0  0  0  0  0  0  0  0  0  0  0
   -5.7158    0.8250    0.0000 C   0  0  0  0  0  0  0  0  0  0  0  0
   -5.0013    1.2375    0.0000 C   0  0  0  0  0  0  0  0  0  0  0  0
   -6.4302    1.2375    0.0000 C   0  0  0  0  0  0  0  0  0  0  0  0
   -7.1447    1.6500    0.0000 N   0  0  0  0  0  0  0  0  0  0  0  0
  1  2  1  0  0  0  0
  2  3  1  0  0  0  0
  3  4  2  0  0  0  0
  3  5  1  0  0  0  0
  5  6  1  0  0  0  0
  6  7  1  0  0  0  0
  7  8  1  0  0  0  0
  8  9  1  0  0  0  0
  9 10  2  0  0  0  0
 10 11  1  0  0  0  0
 11 12  2  0  0  0  0
 12 13  1  0  0  0  0
 12 14  1  0  0  0  0
 14 15  2  0  0  0  0
  9 15  1  0  0  0  0
  8 16  1  0  0  0  0
 16 17  1  0  0  0  0
 16 18  2  0  0  0  0
 16 19  2  0  0  0  0
  5 20  1  0  0  0  0
 20 21  2  0  0  0  0
 20 22  1  0  0  0  0
 22 23  2  0  0  0  0
 23 24  1  0  0  0  0
 24 25  1  0  0  0  0
 25 26  2  0  0  0  0
 26 27  1  0  0  0  0
 22 27  1  0  0  0  0
 27 28  2  0  0  0  0
 24 29  1  0  0  0  0
 29 30  2  0  0  0  0
 30 31  1  0  0  0  0
 31 32  2  0  0  0  0
 32 33  1  0  0  0  0
 33 34  2  0  0  0  0
 29 34  1  0  0  0  0
 33 35  1  0  0  0  0
 35 36  3  0  0  0  0
M  END
> <ID>
CPD_3317

$$$$
CPD_3322
  Mrv1822 09091914012D          

 32 34  0  0  0  0            999 V2000
   -2.8579   -3.3000    0.0000 C   0  0  0  0  0  0  0  0  0  0  0  0
   -2.1434   -2.8875    0.0000 O   0  0  0  0  0  0  0  0  0  0  0  0
   -2.1434   -2.0625    0.0000 C   0  0  0  0  0  0  0  0  0  0  0  0
   -2.8579   -1.6500    0.0000 O   0  0  0  0  0  0  0  0  0  0  0  0
   -1.4289   -1.6500    0.0000 C   0  0  0  0  0  0  0  0  0  0  0  0
   -0.7145   -2.0625    0.0000 C   0  0  0  0  0  0  0  0  0  0  0  0
   -0.7145   -2.8875    0.0000 C   0  0  0  0  0  0  0  0  0  0  0  0
   -0.0000   -3.3000    0.0000 N   0  0  0  0  0  0  0  0  0  0  0  0
    0.0000   -4.1250    0.0000 C   0  0  0  0  0  0  0  0  0  0  0  0
    0.7145   -4.5375    0.0000 C   0  0  0  0  0  0  0  0  0  0  0  0
    0.7145   -5.3625    0.0000 C   0  0  0  0  0  0  0  0  0  0  0  0
    0.0000   -5.7750    0.0000 C   0  0  0  0  0  0  0  0  0  0  0  0
    0.0000   -6.6000    0.0000 F   0  0  0  0  0  0  0  0  0  0  0  0
   -0.7145   -5.3625    0.0000 C   0  0  0  0  0  0  0  0  0  0  0  0
   -0.7145   -4.5375    0.0000 C   0  0  0  0  0  0  0  0  0  0  0  0
    0.7145   -2.8875    0.0000 S   0  0  0  0  0  0  0  0  0  0  0  0
    1.1270   -3.6020    0.0000 C   0  0  0  0  0  0  0  0  0  0  0  0
    0.3020   -2.1730    0.0000 O   0  0  0  0  0  0  0  0  0  0  0  0
    1.4289   -2.4750    0.0000 O   0  0  0  0  0  0  0  0  0  0  0  0
   -1.4289   -0.8250    0.0000 C   0  0  0  0  0  0  0  0  0  0  0  0
   -0.7145   -0.4125    0.0000 O   0  0  0  0  0  0  0  0  0  0  0  0
   -2.1434   -0.4125    0.0000 C   0  0  0  0  0  0  0  0  0  0  0  0
   -2.1434    0.4125    0.0000 C   0  0  0  0  0  0  0  0  0  0  0  0
   -2.8579    0.8250    0.0000 C   0  0  0  0  0  0  0  0  0  0  0  0
   -3.5724    0.4125    0.0000 C   0  0  0  0  0  0  0  0  0  0  0  0
   -3.5724   -0.4125    0.0000 C   0  0  0  0  0  0  0  0  0  0  0  0
   -2.8579   -0.8250    0.0000 C   0  0  0  0  0  0  0  0  0  0  0  0
   -4.2868    0.8250    0.0000 N   0  0  0  0  0  0  0  0  0  0  0  0
   -4.2868    1.6500    0.0000 C   0  0  0  0  0  0  0  0  0  0  0  0
   -3.5724    2.0625    0.0000 C   0  0  0  0  0  0  0  0  0  0  0  0
   -2.8579    1.6500    0.0000 C   0  0  0  0  0  0  0  0  0  0  0  0
   -2.1434    2.0625    0.0000 Cl  0  0  0  0  0  0  0  0  0  0  0  0
  1  2  1  0  0  0  0
  2  3  1  0  0  0  0
  3  4  2  0  0  0  0
  3  5  1  0  0  0  0
  5  6  1  0  0  0  0
  6  7  1  0  0  0  0
  7  8  1  0  0  0  0
  8  9  1  0  0  0  0
  9 10  2  0  0  0  0
 10 11  1  0  0  0  0
 11 12  2  0  0  0  0
 12 13  1  0  0  0  0
 12 14  1  0  0  0  0
 14 15  2  0  0  0  0
  9 15  1  0  0  0  0
  8 16  1  0  0  0  0
 16 17  1  0  0  0  0
 16 18  2  0  0  0  0
 16 19  2  0  0  0  0
  5 20  1  0  0  0  0
 20 21  2  0  0  0  0
 20 22  1  0  0  0  0
 22 23  2  0  0  0  0
 23 24  1  0  0  0  0
 24 25  2  0  0  0  0
 25 26  1  0  0  0  0
 26 27  2  0  0  0  0
 22 27  1  0  0  0  0
 25 28  1  0  0  0  0
 28 29  2  0  0  0  0
 29 30  1  0  0  0  0
 30 31  2  0  0  0  0
 24 31  1  0  0  0  0
 31 32  1  0  0  0  0
M  END
> <ID>
CPD_3322

$$$$
CPD_3327
  Mrv1822 09091914012D          

 35 37  0  0  0  0            999 V2000
    2.6368   -0.2211    0.0000 C   0  0  0  0  0  0  0  0  0  0  0  0
    3.0493   -0.9355    0.0000 O   0  0  0  0  0  0  0  0  0  0  0  0
    3.8743   -0.9355    0.0000 C   0  0  0  0  0  0  0  0  0  0  0  0
    4.2868   -0.2211    0.0000 O   0  0  0  0  0  0  0  0  0  0  0  0
    4.2868   -1.6500    0.0000 C   0  0  0  0  0  0  0  0  0  0  0  0
    4.6993   -2.3645    0.0000 C   0  0  0  0  0  0  0  0  0  0  0  0
    3.5724   -2.0625    0.0000 N   0  0  0  0  0  0  0  0  0  0  0  0
    3.5724   -2.8875    0.0000 C   0  0  0  0  0  0  0  0  0  0  0  0
    4.2868   -3.3000    0.0000 C   0  0  0  0  0  0  0  0  0  0  0  0
    4.2868   -4.1250    0.0000 C   0  0  0  0  0  0  0  0  0  0  0  0
    5.0013   -4.5375    0.0000 C   0  0  0  0  0  0  0  0  0  0  0  0
    3.5724   -4.5375    0.0000 C   0  0  0  0  0  0  0  0  0  0  0  0
    2.8579   -4.1250    0.0000 C   0  0  0  0  0  0  0  0  0  0  0  0
    2.8579   -3.3000    0.0000 C   0  0  0  0  0  0  0  0  0  0  0  0
    2.8579   -1.6500    0.0000 S   0  0  0  0  0  0  0  0  0  0  0  0
    2.1434   -1.2375    0.0000 C   0  0  0  0  0  0  0  0  0  0  0  0
    2.7716   -0.8295    0.0000 O   0  0  0  0  0  0  0  0  0  0  0  0
    2.4454   -2.3645    0.0000 O   0  0  0  0  0  0  0  0  0  0  0  0
    5.0013   -1.2375    0.0000 C   0  0  0  0  0  0  0  0  0  0  0  0
    5.0013   -0.4125    0.0000 O   0  0  0  0  0  0  0  0  0  0  0  0
    5.7158   -1.6500    0.0000 C   0  0  0  0  0  0  0  0  0  0  0  0
    5.7158   -2.4750    0.0000 C   0  0  0  0  0  0  0  0  0  0  0  0
    6.4302   -2.8875    0.0000 C   0  0  0  0  0  0  0  0  0  0  0  0
    7.1447   -2.4750    0.0000 C   0  0  0  0  0  0  0  0  0  0  0  0
    7.1447   -1.6500    0.0000 N   0  0  0  0  0  0  0  0  0  0  0  0
    6.4302   -1.2375    0.0000 C   0  0  0  0  0  0  0  0  0  0  0  0
    6.4302   -0.4125    0.0000 O   0  0  0  0  0  0  0  0  0  0  0  0
    7.8592   -2.8875    0.0000 C   0  0  0  0  0  0  0  0  0  0  0  0
    8.5737   -2.4750    0.0000 C   0  0  0  0  0  0  0  0  0  0  0  0
    9.2881   -2.8875    0.0000 C   0  0  0  0  0  0  0  0  0  0  0  0
    9.2881   -3.7125    0.0000 C   0  0  0  0  0  0  0  0  0  0  0  0
   10.0026   -4.1250    0.0000 O   0  0  0  0  0  0  0  0  0  0  0  0
   10.7171   -3.7125    0.0000 C   0  0  0  0  0  0  0  0  0  0  0  0
    8.5737   -4.1250    0.0000 C   0  0  0  0  0  0  0  0  0  0  0  0
    7.8592   -3.7125    0.0000 C   0  0  0  0  0  0  0  0  0  0  0  0
  1  2  1  0  0  0  0
  2  3  1  0  0  0  0
  3  4  2  0  0  0  0
  3  5  1  0  0  0  0
  5  6  1  0  0  0  0
  5  7  1  0  0  0  0
  7  8  1  0  0  0  0
  8  9  2  0  0  0  0
  9 10  1  0  0  0  0
 10 11  1  0  0  0  0
 10 12  2  0  0  0  0
 12 13  1  0  0  0  0
 13 14  2  0  0  0  0
  8 14  1  0  0  0  0
  7 15  1  0  0  0  0
 15 16  1  0  0  0  0
 15 17  2  0  0  0  0
 15 18  2  0  0  0  0
  5 19  1  0  0  0  0
 19 20  2  0  0  0  0
 19 21  1  0  0  0  0
 21 22  2  0  0  0  0
 22 23  1  0  0  0  0
 23 24  2  0  0  0  0
 24 25  1  0  0  0  0
 25 26  1  0  0  0  0
 21 26  1  0  0  0  0
 26 27  2  0  0  0  0
 24 28  1  0  0  0  0
 28 29  2  0  0  0  0
 29 30  1  0  0  0  0
 30 31  2  0  0  0  0
 31 32  1  0  0  0  0
 32 33  1  0  0  0  0
 31 34  1  0  0  0  0
 34 35  2  0  0  0  0
 28 35  1  0  0  0  0
M  END
> <ID>
CPD_3327

$$$$
CPD_3332
  Mrv1822 09091914012D          

 31 33  0  0  0  0            999 V2000
    1.0547    9.0896    0.0000 C   0  0  0  0  0  0  0  0  0  0  0  0
    0.4416    8.5376    0.0000 O   0  0  0  0  0  0  0  0  0  0  0  0
    0.6131    7.7306    0.0000 C   0  0  0  0  0  0  0  0  0  0  0  0
    1.3977    7.4757    0.0000 O   0  0  0  0  0  0  0  0  0  0  0  0
   -0.0000    7.1786    0.0000 C   0  0  0  0  0  0  0  0  0  0  0  0
   -0.4125    6.4641    0.0000 C   0  0  0  0  0  0  0  0  0  0  0  0
   -0.7145    7.5911    0.0000 N   0  0  0  0  0  0  0  0  0  0  0  0
   -0.7145    8.4161    0.0000 C   0  0  0  0  0  0  0  0  0  0  0  0
   -0.0000    8.8286    0.0000 C   0  0  0  0  0  0  0  0  0  0  0  0
   -0.0000    9.6536    0.0000 C   0  0  0  0  0  0  0  0  0  0  0  0
    0.7145   10.0661    0.0000 C   0  0  0  0  0  0  0  0  0  0  0  0
   -0.7145   10.0661    0.0000 C   0  0  0  0  0  0  0  0  0  0  0  0
   -1.4289    9.6536    0.0000 C   0  0  0  0  0  0  0  0  0  0  0  0
   -1.4289    8.8286    0.0000 C   0  0  0  0  0  0  0  0  0  0  0  0
   -1.4289    7.1786    0.0000 S   0  0  0  0  0  0  0  0  0  0  0  0
   -1.0164    6.4641    0.0000 C   0  0  0  0  0  0  0  0  0  0  0  0
   -2.1434    6.7661    0.0000 O   0  0  0  0  0  0  0  0  0  0  0  0
   -1.8414    7.8930    0.0000 O   0  0  0  0  0  0  0  0  0  0  0  0
    0.7145    6.7661    0.0000 C   0  0  0  0  0  0  0  0  0  0  0  0
    1.4289    7.1786    0.0000 O   0  0  0  0  0  0  0  0  0  0  0  0
    0.7145    5.9411    0.0000 C   0  0  0  0  0  0  0  0  0  0  0  0
    1.4289    5.5286    0.0000 C   0  0  0  0  0  0  0  0  0  0  0  0
    1.4289    4.7036    0.0000 C   0  0  0  0  0  0  0  0  0  0  0  0
    0.7145    4.2911    0.0000 C   0  0  0  0  0  0  0  0  0  0  0  0
    0.0000    4.7036    0.0000 C   0  0  0  0  0  0  0  0  0  0  0  0
   -0.0000    5.5286    0.0000 C   0  0  0  0  0  0  0  0  0  0  0  0
    0.7145    3.4661    0.0000 C   0  0  0  0  0  0  0  0  0  0  0  0
    1.3819    2.9812    0.0000 C   0  0  0  0  0  0  0  0  0  0  0  0
    1.1270    2.1965    0.0000 C   0  0  0  0  0  0  0  0  0  0  0  0
    0.3020    2.1965    0.0000 C   0  0  0  0  0  0  0  0  0  0  0  0
    0.0470    2.9812    0.0000 C   0  0  0  0  0  0  0  0  0  0  0  0
  1  2  1  0  0  0  0
  2  3  1  0  0  0  0
  3  4  2  0  0  0  0
  3  5  1  0  0  0  0
  5  6  1  0  0  0  0
  5  7  1  0  0  0  0
  7  8  1  0  0  0  0
  8  9  2  0  0  0  0
  9 10  1  0  0  0  0
 10 11  1  0  0  0  0
 10 12  2  0  0  0  0
 12 13  1  0  0  0  0
 13 14  2  0  0  0  0
  8 14  1  0  0  0  0
  7 15  1  0  0  0  0
 15 16  1  0  0  0  0
 15 17  2  0  0  0  0
 15 18  2  0  0  0  0
  5 19  1  0  0  0  0
 19 20  2  0  0  0  0
 19 21  1  0  0  0  0
 21 22  2  0  0  0  0
 22 23  1  0  0  0  0
 23 24  2  0  0  0  0
 24 25  1  0  0  0  0
 25 26  2  0  0  0  0
 21 26  1  0  0  0  0
 24 27  1  0  0  0  0
 27 28  1  0  0  0  0
 28 29  1  0  0  0  0
 29 30  1  0  0  0  0
 30 31  1  0  0  0  0
 27 31  1  0  0  0  0
M  END
> <ID>
CPD_3332

$$$$
CPD_3337
  Mrv1822 09091914012D          

 38 40  0  0  0  0            999 V2000
   -2.2784    2.1599    0.0000 C   0  0  0  0  0  0  0  0  0  0  0  0
   -1.8659    1.4455    0.0000 O   0  0  0  0  0  0  0  0  0  0  0  0
   -2.2784    0.7310    0.0000 C   0  0  0  0  0  0  0  0  0  0  0  0
   -3.1034    0.7310    0.0000 O   0  0  0  0  0  0  0  0  0  0  0  0
   -1.8659    0.0165    0.0000 C   0  0  0  0  0  0  0  0  0  0  0  0
   -1.1515    0.4290    0.0000 C   0  0  0  0  0  0  0  0  0  0  0  0
   -2.5804   -0.3960    0.0000 N   0  0  0  0  0  0  0  0  0  0  0  0
   -2.5804   -1.2210    0.0000 C   0  0  0  0  0  0  0  0  0  0  0  0
   -1.8659   -1.6335    0.0000 C   0  0  0  0  0  0  0  0  0  0  0  0
   -1.8659   -2.4585    0.0000 C   0  0  0  0  0  0  0  0  0  0  0  0
   -1.1515   -2.8710    0.0000 C   0  0  0  0  0  0  0  0  0  0  0  0
   -2.5804   -2.8710    0.0000 C   0  0  0  0  0  0  0  0  0  0  0  0
   -3.2949   -2.4585    0.0000 C   0  0  0  0  0  0  0  0  0  0  0  0
   -3.2949   -1.6335    0.0000 C   0  0  0  0  0  0  0  0  0  0  0  0
   -3.2949    0.0165    0.0000 S   0  0  0  0  0  0  0  0  0  0  0  0
   -4.0093    0.4290    0.0000 C   0  0  0  0  0  0  0  0  0  0  0  0
   -3.3811    0.8370    0.0000 O   0  0  0  0  0  0  0  0  0  0  0  0
   -3.7074   -0.6979    0.0000 O   0  0  0  0  0  0  0  0  0  0  0  0
   -1.4534   -0.6979    0.0000 C   0  0  0  0  0  0  0  0  0  0  0  0
   -1.3672   -1.5184    0.0000 O   0  0  0  0  0  0  0  0  0  0  0  0
   -0.6284   -0.6979    0.0000 C   0  0  0  0  0  0  0  0  0  0  0  0
   -0.1435   -1.3654    0.0000 C   0  0  0  0  0  0  0  0  0  0  0  0
   -0.3984   -2.1500    0.0000 N   0  0  0  0  0  0  0  0  0  0  0  0
    0.1536   -2.7631    0.0000 C   0  0  0  0  0  0  0  0  0  0  0  0
   -0.1014   -3.5477    0.0000 N   0  0  0  0  0  0  0  0  0  0  0  0
    0.4507   -4.1608    0.0000 C   0  0  0  0  0  0  0  0  0  0  0  0
   -0.9083   -3.7192    0.0000 C   0  0  0  0  0  0  0  0  0  0  0  0
    0.6411   -1.1104    0.0000 C   0  0  0  0  0  0  0  0  0  0  0  0
    0.6411   -0.2854    0.0000 C   0  0  0  0  0  0  0  0  0  0  0  0
   -0.1435   -0.0305    0.0000 N   0  0  0  0  0  0  0  0  0  0  0  0
    1.3556    0.1271    0.0000 C   0  0  0  0  0  0  0  0  0  0  0  0
    2.0701   -0.2854    0.0000 C   0  0  0  0  0  0  0  0  0  0  0  0
    2.7845    0.1271    0.0000 O   0  0  0  0  0  0  0  0  0  0  0  0
    2.7845    0.9521    0.0000 C   0  0  0  0  0  0  0  0  0  0  0  0
    2.0701   -1.1104    0.0000 C   0  0  0  0  0  0  0  0  0  0  0  0
    2.7845   -1.5229    0.0000 O   0  0  0  0  0  0  0  0  0  0  0  0
    2.7845   -2.3479    0.0000 C   0  0  0  0  0  0  0  0  0  0  0  0
    1.3556   -1.5229    0.0000 C   0  0  0  0  0  0  0  0  0  0  0  0
  1  2  1  0  0  0  0
  2  3  1  0  0  0  0
  3  4  2  0  0  0  0
  3  5  1  0  0  0  0
  5  6  1  0  0  0  0
  5  7  1  0  0  0  0
  7  8  1  0  0  0  0
  8  9  2  0  0  0  0
  9 10  1  0  0  0  0
 10 11  1  0  0  0  0
 10 12  2  0  0  0  0
 12 13  1  0  0  0  0
 13 14  2  0  0  0  0
  8 14  1  0  0  0  0
  7 15  1  0  0  0  0
 15 16  1  0  0  0  0
 15 17  2  0  0  0  0
 15 18  2  0  0  0  0
  5 19  1  0  0  0  0
 19 20  2  0  0  0  0
 19 21  1  0  0  0  0
 21 22  2  0  0  0  0
 22 23  1  0  0  0  0
 23 24  2  0  0  0  0
 24 25  1  0  0  0  0
 25 26  1  0  0  0  0
 25 27  1  0  0  0  0
 22 28  1  0  0  0  0
 28 29  2  0  0  0  0
 29 30  1  0  0  0  0
 21 30  1  0  0  0  0
 29 31  1  0  0  0  0
 31 32  2  0  0  0  0
 32 33  1  0  0  0  0
 33 34  1  0  0  0  0
 32 35  1  0  0  0  0
 35 36  1  0  0  0  0
 36 37  1  0  0  0  0
 35 38  2  0  0  0  0
 28 38  1  0  0  0  0
M  END
> <ID>
CPD_3337

$$$$
CPD_3342
  Mrv1822 09091914012D          

 32 34  0  0  0  0            999 V2000
    6.1368    2.8875    0.0000 C   0  0  0  0  0  0  0  0  0  0  0  0
    5.4223    2.4750    0.0000 O   0  0  0  0  0  0  0  0  0  0  0  0
    4.7079    2.8875    0.0000 C   0  0  0  0  0  0  0  0  0  0  0  0
    4.7079    3.7125    0.0000 O   0  0  0  0  0  0  0  0  0  0  0  0
    3.9934    2.4750    0.0000 C   0  0  0  0  0  0  0  0  0  0  0  0
    4.4059    1.7605    0.0000 C   0  0  0  0  0  0  0  0  0  0  0  0
    3.5809    3.1895    0.0000 N   0  0  0  0  0  0  0  0  0  0  0  0
    2.7559    3.1895    0.0000 C   0  0  0  0  0  0  0  0  0  0  0  0
    2.3434    3.9039    0.0000 C   0  0  0  0  0  0  0  0  0  0  0  0
    1.5184    3.9039    0.0000 C   0  0  0  0  0  0  0  0  0  0  0  0
    1.1059    4.6184    0.0000 Cl  0  0  0  0  0  0  0  0  0  0  0  0
    1.1059    3.1895    0.0000 C   0  0  0  0  0  0  0  0  0  0  0  0
    0.2809    3.1895    0.0000 O   0  0  0  0  0  0  0  0  0  0  0  0
   -0.1316    3.9039    0.0000 C   0  0  0  0  0  0  0  0  0  0  0  0
    1.5184    2.4750    0.0000 C   0  0  0  0  0  0  0  0  0  0  0  0
    2.3434    2.4750    0.0000 C   0  0  0  0  0  0  0  0  0  0  0  0
    3.9934    3.9039    0.0000 S   0  0  0  0  0  0  0  0  0  0  0  0
    4.4059    4.6184    0.0000 C   0  0  0  0  0  0  0  0  0  0  0  0
    4.8139    3.9902    0.0000 O   0  0  0  0  0  0  0  0  0  0  0  0
    3.2789    4.3164    0.0000 O   0  0  0  0  0  0  0  0  0  0  0  0
    3.2789    2.0625    0.0000 C   0  0  0  0  0  0  0  0  0  0  0  0
    2.4584    1.9763    0.0000 O   0  0  0  0  0  0  0  0  0  0  0  0
    3.2789    1.2375    0.0000 C   0  0  0  0  0  0  0  0  0  0  0  0
    3.9934    0.8250    0.0000 C   0  0  0  0  0  0  0  0  0  0  0  0
    3.9934    0.0000    0.0000 C   0  0  0  0  0  0  0  0  0  0  0  0
    3.2789   -0.4125    0.0000 C   0  0  0  0  0  0  0  0  0  0  0  0
    3.2789   -1.2375    0.0000 Br  0  0  0  0  0  0  0  0  0  0  0  0
    2.5645    0.0000    0.0000 C   0  0  0  0  0  0  0  0  0  0  0  0
    2.5645    0.8250    0.0000 C   0  0  0  0  0  0  0  0  0  0  0  0
    1.7798    1.0799    0.0000 N   0  0  0  0  0  0  0  0  0  0  0  0
    1.2949    0.4125    0.0000 C   0  0  0  0  0  0  0  0  0  0  0  0
    1.7798   -0.2549    0.0000 C   0  0  0  0  0  0  0  0  0  0  0  0
  1  2  1  0  0  0  0
  2  3  1  0  0  0  0
  3  4  2  0  0  0  0
  3  5  1  0  0  0  0
  5  6  1  0  0  0  0
  5  7  1  0  0  0  0
  7  8  1  0  0  0  0
  8  9  2  0  0  0  0
  9 10  1  0  0  0  0
 10 11  1  0  0  0  0
 10 12  2  0  0  0  0
 12 13  1  0  0  0  0
 13 14  1  0  0  0  0
 12 15  1  0  0  0  0
 15 16  2  0  0  0  0
  8 16  1  0  0  0  0
  7 17  1  0  0  0  0
 17 18  1  0  0  0  0
 17 19  2  0  0  0  0
 17 20  2  0  0  0  0
  5 21  1  0  0  0  0
 21 22  2  0  0  0  0
 21 23  1  0  0  0  0
 23 24  2  0  0  0  0
 24 25  1  0  0  0  0
 25 26  2  0  0  0  0
 26 27  1  0  0  0  0
 26 28  1  0  0  0  0
 28 29  2  0  0  0  0
 23 29  1  0  0  0  0
 29 30  1  0  0  0  0
 30 31  1  0  0  0  0
 31 32  2  0  0  0  0
 28 32  1  0  0  0  0
M  END
> <ID>
CPD_3342

$$$$
CPD_3347
  Mrv1822 09091914012D          

 34 35  0  0  0  0            999 V2000
    0.4125   -3.7934    0.0000 C   0  0  0  0  0  0  0  0  0  0  0  0
    0.0000   -3.0789    0.0000 O   0  0  0  0  0  0  0  0  0  0  0  0
    0.4125   -2.3645    0.0000 C   0  0  0  0  0  0  0  0  0  0  0  0
    1.2375   -2.3645    0.0000 O   0  0  0  0  0  0  0  0  0  0  0  0
    0.0000   -1.6500    0.0000 C   0  0  0  0  0  0  0  0  0  0  0  0
   -0.4125   -0.9355    0.0000 C   0  0  0  0  0  0  0  0  0  0  0  0
    0.7145   -1.2375    0.0000 N   0  0  0  0  0  0  0  0  0  0  0  0
    0.7145   -0.4125    0.0000 C   0  0  0  0  0  0  0  0  0  0  0  0
    0.0000   -0.0000    0.0000 C   0  0  0  0  0  0  0  0  0  0  0  0
    0.0000    0.8250    0.0000 C   0  0  0  0  0  0  0  0  0  0  0  0
   -0.7145    1.2375    0.0000 O   0  0  0  0  0  0  0  0  0  0  0  0
   -0.7145    2.0625    0.0000 C   0  0  0  0  0  0  0  0  0  0  0  0
    0.7145    1.2375    0.0000 C   0  0  0  0  0  0  0  0  0  0  0  0
    1.4289    0.8250    0.0000 C   0  0  0  0  0  0  0  0  0  0  0  0
    1.4289   -0.0000    0.0000 C   0  0  0  0  0  0  0  0  0  0  0  0
    2.1434   -0.4125    0.0000 O   0  0  0  0  0  0  0  0  0  0  0  0
    2.8579   -0.0000    0.0000 C   0  0  0  0  0  0  0  0  0  0  0  0
    1.4289   -1.6500    0.0000 S   0  0  0  0  0  0  0  0  0  0  0  0
    2.1434   -2.0625    0.0000 C   0  0  0  0  0  0  0  0  0  0  0  0
    1.5152   -2.4705    0.0000 O   0  0  0  0  0  0  0  0  0  0  0  0
    1.8414   -0.9355    0.0000 O   0  0  0  0  0  0  0  0  0  0  0  0
   -0.7145   -2.0625    0.0000 C   0  0  0  0  0  0  0  0  0  0  0  0
   -0.7145   -2.8875    0.0000 O   0  0  0  0  0  0  0  0  0  0  0  0
   -1.4289   -1.6500    0.0000 C   0  0  0  0  0  0  0  0  0  0  0  0
   -2.1434   -2.0625    0.0000 C   0  0  0  0  0  0  0  0  0  0  0  0
   -2.1434   -2.8875    0.0000 N   0  0  0  0  0  0  0  0  0  0  0  0
   -1.4760   -3.3724    0.0000 C   0  0  0  0  0  0  0  0  0  0  0  0
   -1.7309   -4.1570    0.0000 C   0  0  0  0  0  0  0  0  0  0  0  0
   -2.5559   -4.1570    0.0000 N   0  0  0  0  0  0  0  0  0  0  0  0
   -2.8109   -3.3724    0.0000 C   0  0  0  0  0  0  0  0  0  0  0  0
   -1.4289   -0.8250    0.0000 N   0  0  0  0  0  0  0  0  0  0  0  0
   -2.1434   -0.4125    0.0000 C   0  0  0  0  0  0  0  0  0  0  0  0
   -2.1434    0.4125    0.0000 C   0  0  0  0  0  0  0  0  0  0  0  0
   -2.8579   -0.8250    0.0000 O   0  0  0  0  0  0  0  0  0  0  0  0
  1  2  1  0  0  0  0
  2  3  1  0  0  0  0
  3  4  2  0  0  0  0
  3  5  1  0  0  0  0
  5  6  1  0  0  0  0
  5  7  1  0  0  0  0
  7  8  1  0  0  0  0
  8  9  2  0  0  0  0
  9 10  1  0  0  0  0
 10 11  1  0  0  0  0
 11 12  1  0  0  0  0
 10 13  2  0  0  0  0
 13 14  1  0  0  0  0
 14 15  2  0  0  0  0
  8 15  1  0  0  0  0
 15 16  1  0  0  0  0
 16 17  1  0  0  0  0
  7 18  1  0  0  0  0
 18 19  1  0  0  0  0
 18 20  2  0  0  0  0
 18 21  2  0  0  0  0
  5 22  1  0  0  0  0
 22 23  2  0  0  0  0
 22 24  1  0  0  0  0
 24 25  1  0  0  0  0
 25 26  1  0  0  0  0
 26 27  1  0  0  0  0
 27 28  2  0  0  0  0
 28 29  1  0  0  0  0
 29 30  2  0  0  0  0
 26 30  1  0  0  0  0
 24 31  1  0  0  0  0
 31 32  1  0  0  0  0
 32 33  1  0  0  0  0
 32 34  2  0  0  0  0
M  END
> <ID>
CPD_3347

$$$$
CPD_3352
  Mrv1822 09091914012D          

 34 36  0  0  0  0            999 V2000
    2.2226    4.8897    0.0000 C   0  0  0  0  0  0  0  0  0  0  0  0
    2.4362    4.0928    0.0000 O   0  0  0  0  0  0  0  0  0  0  0  0
    1.8528    3.5094    0.0000 C   0  0  0  0  0  0  0  0  0  0  0  0
    1.3336    4.1505    0.0000 O   0  0  0  0  0  0  0  0  0  0  0  0
    2.0663    2.7125    0.0000 C   0  0  0  0  0  0  0  0  0  0  0  0
    2.8632    2.9260    0.0000 C   0  0  0  0  0  0  0  0  0  0  0  0
    1.2694    2.4990    0.0000 N   0  0  0  0  0  0  0  0  0  0  0  0
    0.6861    3.0824    0.0000 C   0  0  0  0  0  0  0  0  0  0  0  0
    0.8996    3.8792    0.0000 C   0  0  0  0  0  0  0  0  0  0  0  0
    0.3162    4.4626    0.0000 C   0  0  0  0  0  0  0  0  0  0  0  0
    0.5298    5.2595    0.0000 O   0  0  0  0  0  0  0  0  0  0  0  0
   -0.0536    5.8429    0.0000 C   0  0  0  0  0  0  0  0  0  0  0  0
   -0.4807    4.2491    0.0000 C   0  0  0  0  0  0  0  0  0  0  0  0
   -0.6942    3.4522    0.0000 C   0  0  0  0  0  0  0  0  0  0  0  0
   -0.1108    2.8688    0.0000 C   0  0  0  0  0  0  0  0  0  0  0  0
   -0.3243    2.0719    0.0000 O   0  0  0  0  0  0  0  0  0  0  0  0
   -1.1212    1.8584    0.0000 C   0  0  0  0  0  0  0  0  0  0  0  0
    1.0559    1.7021    0.0000 S   0  0  0  0  0  0  0  0  0  0  0  0
    0.8424    0.9052    0.0000 C   0  0  0  0  0  0  0  0  0  0  0  0
    1.8528    1.4886    0.0000 O   0  0  0  0  0  0  0  0  0  0  0  0
    0.2590    1.9156    0.0000 O   0  0  0  0  0  0  0  0  0  0  0  0
    2.2798    1.9156    0.0000 C   0  0  0  0  0  0  0  0  0  0  0  0
    1.9053    1.1805    0.0000 O   0  0  0  0  0  0  0  0  0  0  0  0
    3.0767    1.7021    0.0000 N   0  0  0  0  0  0  0  0  0  0  0  0
    3.6601    2.2855    0.0000 C   0  0  0  0  0  0  0  0  0  0  0  0
    4.4570    2.0719    0.0000 C   0  0  0  0  0  0  0  0  0  0  0  0
    4.6705    1.2750    0.0000 C   0  0  0  0  0  0  0  0  0  0  0  0
    4.0872    0.6917    0.0000 C   0  0  0  0  0  0  0  0  0  0  0  0
    3.2903    0.9052    0.0000 C   0  0  0  0  0  0  0  0  0  0  0  0
    2.7069    0.3218    0.0000 C   0  0  0  0  0  0  0  0  0  0  0  0
    2.1235    0.9052    0.0000 O   0  0  0  0  0  0  0  0  0  0  0  0
    3.2903   -0.2615    0.0000 C   0  0  0  0  0  0  0  0  0  0  0  0
    2.7069   -0.8449    0.0000 N   0  0  0  0  0  0  0  0  0  0  0  0
    2.1235   -0.2615    0.0000 C   0  0  0  0  0  0  0  0  0  0  0  0
  1  2  1  0  0  0  0
  2  3  1  0  0  0  0
  3  4  2  0  0  0  0
  3  5  1  0  0  0  0
  5  6  1  0  0  0  0
  5  7  1  0  0  0  0
  7  8  1  0  0  0  0
  8  9  2  0  0  0  0
  9 10  1  0  0  0  0
 10 11  1  0  0  0  0
 11 12  1  0  0  0  0
 10 13  2  0  0  0  0
 13 14  1  0  0  0  0
 14 15  2  0  0  0  0
  8 15  1  0  0  0  0
 15 16  1  0  0  0  0
 16 17  1  0  0  0  0
  7 18  1  0  0  0  0
 18 19  1  0  0  0  0
 18 20  2  0  0  0  0
 18 21  2  0  0  0  0
  5 22  1  0  0  0  0
 22 23  2  0  0  0  0
 22 24  1  0  0  0  0
 24 25  1  0  0  0  0
 25 26  1  0  0  0  0
 26 27  1  0  0  0  0
 27 28  1  0  0  0  0
 28 29  1  0  0  0  0
 24 29  1  0  0  0  0
 29 30  1  0  0  0  0
 30 31  1  0  0  0  0
 30 32  1  0  0  0  0
 32 33  1  0  0  0  0
 33 34  1  0  0  0  0
 30 34  1  0  0  0  0
M  END
> <ID>
CPD_3352

$$$$
CPD_3357
  Mrv1822 09091914012D          

 34 35  0  0  0  0            999 V2000
    6.4666   -2.0898    0.0000 C   0  0  0  0  0  0  0  0  0  0  0  0
    6.2684   -2.8907    0.0000 O   0  0  0  0  0  0  0  0  0  0  0  0
    5.4758   -3.1195    0.0000 C   0  0  0  0  0  0  0  0  0  0  0  0
    4.8813   -2.5475    0.0000 O   0  0  0  0  0  0  0  0  0  0  0  0
    5.2776   -3.9203    0.0000 C   0  0  0  0  0  0  0  0  0  0  0  0
    4.4850   -4.1492    0.0000 N   0  0  0  0  0  0  0  0  0  0  0  0
    3.8905   -3.5771    0.0000 C   0  0  0  0  0  0  0  0  0  0  0  0
    3.0979   -3.8059    0.0000 C   0  0  0  0  0  0  0  0  0  0  0  0
    2.5034   -3.2339    0.0000 C   0  0  0  0  0  0  0  0  0  0  0  0
    2.7016   -2.4330    0.0000 C   0  0  0  0  0  0  0  0  0  0  0  0
    2.1071   -1.8610    0.0000 Cl  0  0  0  0  0  0  0  0  0  0  0  0
    3.4942   -2.2042    0.0000 C   0  0  0  0  0  0  0  0  0  0  0  0
    4.0887   -2.7763    0.0000 C   0  0  0  0  0  0  0  0  0  0  0  0
    3.6923   -1.4034    0.0000 C   0  0  0  0  0  0  0  0  0  0  0  0
    3.8905   -0.6025    0.0000 F   0  0  0  0  0  0  0  0  0  0  0  0
    4.4932   -1.6015    0.0000 F   0  0  0  0  0  0  0  0  0  0  0  0
    2.8915   -1.2052    0.0000 F   0  0  0  0  0  0  0  0  0  0  0  0
    4.2868   -4.9500    0.0000 S   0  0  0  0  0  0  0  0  0  0  0  0
    3.4860   -4.7518    0.0000 C   0  0  0  0  0  0  0  0  0  0  0  0
    5.0877   -5.1482    0.0000 O   0  0  0  0  0  0  0  0  0  0  0  0
    4.0887   -5.7508    0.0000 O   0  0  0  0  0  0  0  0  0  0  0  0
    5.8721   -4.4924    0.0000 C   0  0  0  0  0  0  0  0  0  0  0  0
    5.6739   -5.2932    0.0000 O   0  0  0  0  0  0  0  0  0  0  0  0
    6.6647   -4.2636    0.0000 C   0  0  0  0  0  0  0  0  0  0  0  0
    7.2592   -4.8356    0.0000 C   0  0  0  0  0  0  0  0  0  0  0  0
    8.0518   -4.6068    0.0000 C   0  0  0  0  0  0  0  0  0  0  0  0
    8.6463   -5.1788    0.0000 N   0  0  0  0  0  0  0  0  0  0  0  0
    9.4389   -4.9500    0.0000 C   0  0  0  0  0  0  0  0  0  0  0  0
   10.0334   -5.5220    0.0000 C   0  0  0  0  0  0  0  0  0  0  0  0
   10.8261   -5.2932    0.0000 C   0  0  0  0  0  0  0  0  0  0  0  0
   11.4205   -5.8653    0.0000 C   0  0  0  0  0  0  0  0  0  0  0  0
   11.2224   -6.6661    0.0000 C   0  0  0  0  0  0  0  0  0  0  0  0
   10.4297   -6.8949    0.0000 C   0  0  0  0  0  0  0  0  0  0  0  0
    9.8353   -6.3229    0.0000 C   0  0  0  0  0  0  0  0  0  0  0  0
  1  2  1  0  0  0  0
  2  3  1  0  0  0  0
  3  4  2  0  0  0  0
  3  5  1  0  0  0  0
  5  6  1  0  0  0  0
  6  7  1  0  0  0  0
  7  8  2  0  0  0  0
  8  9  1  0  0  0  0
  9 10  2  0  0  0  0
 10 11  1  0  0  0  0
 10 12  1  0  0  0  0
 12 13  2  0  0  0  0
  7 13  1  0  0  0  0
 12 14  1  0  0  0  0
 14 15  1  0  0  0  0
 14 16  1  0  0  0  0
 14 17  1  0  0  0  0
  6 18  1  0  0  0  0
 18 19  1  0  0  0  0
 18 20  2  0  0  0  0
 18 21  2  0  0  0  0
  5 22  1  0  0  0  0
 22 23  2  0  0  0  0
 22 24  1  0  0  0  0
 24 25  1  0  0  0  0
 25 26  1  0  0  0  0
 26 27  1  0  0  0  0
 27 28  1  0  0  0  0
 28 29  1  0  0  0  0
 29 30  2  0  0  0  0
 30 31  1  0  0  0  0
 31 32  2  0  0  0  0
 32 33  1  0  0  0  0
 33 34  2  0  0  0  0
 29 34  1  0  0  0  0
M  END
> <ID>
CPD_3357

$$$$
CPD_3362
  Mrv1822 09091914012D          

 36 38  0  0  0  0            999 V2000
   -2.2539   -1.6500    0.0000 C   0  0  0  0  0  0  0  0  0  0  0  0
   -1.4289   -1.6500    0.0000 O   0  0  0  0  0  0  0  0  0  0  0  0
   -1.0164   -0.9355    0.0000 C   0  0  0  0  0  0  0  0  0  0  0  0
   -1.4289   -0.2211    0.0000 O   0  0  0  0  0  0  0  0  0  0  0  0
   -0.1914   -0.9355    0.0000 C   0  0  0  0  0  0  0  0  0  0  0  0
    0.2211   -1.6500    0.0000 N   0  0  0  0  0  0  0  0  0  0  0  0
   -0.1914   -2.3645    0.0000 C   0  0  0  0  0  0  0  0  0  0  0  0
    0.2211   -3.0789    0.0000 C   0  0  0  0  0  0  0  0  0  0  0  0
    1.0461   -3.0789    0.0000 C   0  0  0  0  0  0  0  0  0  0  0  0
   -0.1914   -3.7934    0.0000 C   0  0  0  0  0  0  0  0  0  0  0  0
   -1.0164   -3.7934    0.0000 C   0  0  0  0  0  0  0  0  0  0  0  0
   -1.4289   -3.0789    0.0000 C   0  0  0  0  0  0  0  0  0  0  0  0
   -2.2539   -3.0789    0.0000 C   0  0  0  0  0  0  0  0  0  0  0  0
   -1.0164   -2.3645    0.0000 C   0  0  0  0  0  0  0  0  0  0  0  0
    1.0461   -1.6500    0.0000 S   0  0  0  0  0  0  0  0  0  0  0  0
    1.0461   -0.8250    0.0000 O   0  0  0  0  0  0  0  0  0  0  0  0
    1.0461   -2.4750    0.0000 O   0  0  0  0  0  0  0  0  0  0  0  0
    1.8711   -1.6500    0.0000 C   0  0  0  0  0  0  0  0  0  0  0  0
    2.2836   -0.9355    0.0000 C   0  0  0  0  0  0  0  0  0  0  0  0
    3.1086   -0.9355    0.0000 C   0  0  0  0  0  0  0  0  0  0  0  0
    3.5211   -1.6500    0.0000 C   0  0  0  0  0  0  0  0  0  0  0  0
    4.3461   -1.6500    0.0000 C   0  0  0  0  0  0  0  0  0  0  0  0
    3.1086   -2.3645    0.0000 C   0  0  0  0  0  0  0  0  0  0  0  0
    2.2836   -2.3645    0.0000 C   0  0  0  0  0  0  0  0  0  0  0  0
    0.2211   -0.2211    0.0000 C   0  0  0  0  0  0  0  0  0  0  0  0
    1.0461   -0.2211    0.0000 O   0  0  0  0  0  0  0  0  0  0  0  0
   -0.1914    0.4934    0.0000 C   0  0  0  0  0  0  0  0  0  0  0  0
   -1.0164    0.4934    0.0000 N   0  0  0  0  0  0  0  0  0  0  0  0
   -1.4289    1.2079    0.0000 C   0  0  0  0  0  0  0  0  0  0  0  0
   -2.2539    1.2079    0.0000 C   0  0  0  0  0  0  0  0  0  0  0  0
   -1.0164    1.9224    0.0000 C   0  0  0  0  0  0  0  0  0  0  0  0
   -0.1914    1.9224    0.0000 C   0  0  0  0  0  0  0  0  0  0  0  0
    0.2211    2.6368    0.0000 C   0  0  0  0  0  0  0  0  0  0  0  0
    0.2211    1.2079    0.0000 C   0  0  0  0  0  0  0  0  0  0  0  0
    1.0461    1.2079    0.0000 C   0  0  0  0  0  0  0  0  0  0  0  0
    1.8711    1.2079    0.0000 N   0  0  0  0  0  0  0  0  0  0  0  0
  1  2  1  0  0  0  0
  2  3  1  0  0  0  0
  3  4  2  0  0  0  0
  3  5  1  0  0  0  0
  5  6  1  0  0  0  0
  6  7  1  0  0  0  0
  7  8  2  0  0  0  0
  8  9  1  0  0  0  0
  8 10  1  0  0  0  0
 10 11  2  0  0  0  0
 11 12  1  0  0  0  0
 12 13  1  0  0  0  0
 12 14  2  0  0  0  0
  7 14  1  0  0  0  0
  6 15  1  0  0  0  0
 15 16  2  0  0  0  0
 15 17  2  0  0  0  0
 15 18  1  0  0  0  0
 18 19  2  0  0  0  0
 19 20  1  0  0  0  0
 20 21  2  0  0  0  0
 21 22  1  0  0  0  0
 21 23  1  0  0  0  0
 23 24  2  0  0  0  0
 18 24  1  0  0  0  0
  5 25  1  0  0  0  0
 25 26  2  0  0  0  0
 25 27  1  0  0  0  0
 27 28  2  0  0  0  0
 28 29  1  0  0  0  0
 29 30  1  0  0  0  0
 29 31  2  0  0  0  0
 31 32  1  0  0  0  0
 32 33  1  0  0  0  0
 32 34  2  0  0  0  0
 27 34  1  0  0  0  0
 34 35  1  0  0  0  0
 35 36  3  0  0  0  0
M  END
> <ID>
CPD_3362

$$$$
CPD_3367
  Mrv1822 09091914012D          

 36 38  0  0  0  0            999 V2000
    1.7309    0.3020    0.0000 C   0  0  0  0  0  0  0  0  0  0  0  0
    2.1434   -0.4125    0.0000 O   0  0  0  0  0  0  0  0  0  0  0  0
    2.9684   -0.4125    0.0000 C   0  0  0  0  0  0  0  0  0  0  0  0
    3.3809    0.3020    0.0000 O   0  0  0  0  0  0  0  0  0  0  0  0
    3.3809   -1.1270    0.0000 C   0  0  0  0  0  0  0  0  0  0  0  0
    4.2059   -1.1270    0.0000 N   0  0  0  0  0  0  0  0  0  0  0  0
    4.6184   -1.8414    0.0000 C   0  0  0  0  0  0  0  0  0  0  0  0
    5.4434   -1.8414    0.0000 C   0  0  0  0  0  0  0  0  0  0  0  0
    5.8559   -1.1270    0.0000 C   0  0  0  0  0  0  0  0  0  0  0  0
    5.8559   -2.5559    0.0000 C   0  0  0  0  0  0  0  0  0  0  0  0
    5.4434   -3.2704    0.0000 C   0  0  0  0  0  0  0  0  0  0  0  0
    4.6184   -3.2704    0.0000 C   0  0  0  0  0  0  0  0  0  0  0  0
    4.2059   -3.9849    0.0000 C   0  0  0  0  0  0  0  0  0  0  0  0
    4.2059   -2.5559    0.0000 C   0  0  0  0  0  0  0  0  0  0  0  0
    4.6184   -0.4125    0.0000 S   0  0  0  0  0  0  0  0  0  0  0  0
    3.9039    0.0000    0.0000 O   0  0  0  0  0  0  0  0  0  0  0  0
    5.3329   -0.8250    0.0000 O   0  0  0  0  0  0  0  0  0  0  0  0
    5.0309    0.3020    0.0000 C   0  0  0  0  0  0  0  0  0  0  0  0
    4.6184    1.0164    0.0000 C   0  0  0  0  0  0  0  0  0  0  0  0
    5.0309    1.7309    0.0000 C   0  0  0  0  0  0  0  0  0  0  0  0
    5.8559    1.7309    0.0000 C   0  0  0  0  0  0  0  0  0  0  0  0
    6.2684    2.4454    0.0000 C   0  0  0  0  0  0  0  0  0  0  0  0
    6.2684    1.0164    0.0000 C   0  0  0  0  0  0  0  0  0  0  0  0
    5.8559    0.3020    0.0000 C   0  0  0  0  0  0  0  0  0  0  0  0
    2.9684   -1.8414    0.0000 C   0  0  0  0  0  0  0  0  0  0  0  0
    3.3809   -2.5559    0.0000 O   0  0  0  0  0  0  0  0  0  0  0  0
    2.1434   -1.8414    0.0000 C   0  0  0  0  0  0  0  0  0  0  0  0
    1.7309   -2.5559    0.0000 C   0  0  0  0  0  0  0  0  0  0  0  0
    0.9059   -2.5559    0.0000 C   0  0  0  0  0  0  0  0  0  0  0  0
    0.4934   -1.8414    0.0000 N   0  0  0  0  0  0  0  0  0  0  0  0
    0.9059   -1.1270    0.0000 C   0  0  0  0  0  0  0  0  0  0  0  0
    1.7309   -1.1270    0.0000 C   0  0  0  0  0  0  0  0  0  0  0  0
    2.1434   -3.2704    0.0000 C   0  0  0  0  0  0  0  0  0  0  0  0
    2.5559   -3.9849    0.0000 F   0  0  0  0  0  0  0  0  0  0  0  0
    1.4289   -3.6829    0.0000 F   0  0  0  0  0  0  0  0  0  0  0  0
    2.8579   -2.8579    0.0000 F   0  0  0  0  0  0  0  0  0  0  0  0
  1  2  1  0  0  0  0
  2  3  1  0  0  0  0
  3  4  2  0  0  0  0
  3  5  1  0  0  0  0
  5  6  1  0  0  0  0
  6  7  1  0  0  0  0
  7  8  2  0  0  0  0
  8  9  1  0  0  0  0
  8 10  1  0  0  0  0
 10 11  2  0  0  0  0
 11 12  1  0  0  0  0
 12 13  1  0  0  0  0
 12 14  2  0  0  0  0
  7 14  1  0  0  0  0
  6 15  1  0  0  0  0
 15 16  2  0  0  0  0
 15 17  2  0  0  0  0
 15 18  1  0  0  0  0
 18 19  2  0  0  0  0
 19 20  1  0  0  0  0
 20 21  2  0  0  0  0
 21 22  1  0  0  0  0
 21 23  1  0  0  0  0
 23 24  2  0  0  0  0
 18 24  1  0  0  0  0
  5 25  1  0  0  0  0
 25 26  2  0  0  0  0
 25 27  1  0  0  0  0
 27 28  2  0  0  0  0
 28 29  1  0  0  0  0
 29 30  2  0  0  0  0
 30 31  1  0  0  0  0
 31 32  2  0  0  0  0
 27 32  1  0  0  0  0
 28 33  1  0  0  0  0
 33 34  1  0  0  0  0
 33 35  1  0  0  0  0
 33 36  1  0  0  0  0
M  END
> <ID>
CPD_3367

$$$$
CPD_3372
  Mrv1822 09091914012D          

 34 36  0  0  0  0            999 V2000
    1.6204    1.3184    0.0000 C   0  0  0  0  0  0  0  0  0  0  0  0
    1.2079    0.6039    0.0000 C   0  0  0  0  0  0  0  0  0  0  0  0
    1.6204   -0.1105    0.0000 O   0  0  0  0  0  0  0  0  0  0  0  0
    2.4454   -0.1105    0.0000 C   0  0  0  0  0  0  0  0  0  0  0  0
    2.8579    0.6039    0.0000 O   0  0  0  0  0  0  0  0  0  0  0  0
    2.8579   -0.8250    0.0000 C   0  0  0  0  0  0  0  0  0  0  0  0
    3.2704   -1.5395    0.0000 C   0  0  0  0  0  0  0  0  0  0  0  0
    3.3566   -2.3600    0.0000 O   0  0  0  0  0  0  0  0  0  0  0  0
    4.0954   -1.5395    0.0000 O   0  0  0  0  0  0  0  0  0  0  0  0
    4.5079   -2.2539    0.0000 C   0  0  0  0  0  0  0  0  0  0  0  0
    5.3329   -2.2539    0.0000 C   0  0  0  0  0  0  0  0  0  0  0  0
    2.1434   -1.2375    0.0000 C   0  0  0  0  0  0  0  0  0  0  0  0
    1.4289   -0.8250    0.0000 O   0  0  0  0  0  0  0  0  0  0  0  0
    2.1434   -2.0625    0.0000 C   0  0  0  0  0  0  0  0  0  0  0  0
    2.8579   -2.4750    0.0000 C   0  0  0  0  0  0  0  0  0  0  0  0
    2.8579   -3.3000    0.0000 C   0  0  0  0  0  0  0  0  0  0  0  0
    2.1434   -3.7125    0.0000 N   0  0  0  0  0  0  0  0  0  0  0  0
    1.4289   -3.3000    0.0000 C   0  0  0  0  0  0  0  0  0  0  0  0
    1.4289   -2.4750    0.0000 C   0  0  0  0  0  0  0  0  0  0  0  0
    3.5724   -3.7125    0.0000 C   0  0  0  0  0  0  0  0  0  0  0  0
    4.2868   -3.3000    0.0000 C   0  0  0  0  0  0  0  0  0  0  0  0
    5.0013   -3.7125    0.0000 C   0  0  0  0  0  0  0  0  0  0  0  0
    5.0013   -4.5375    0.0000 C   0  0  0  0  0  0  0  0  0  0  0  0
    5.7158   -4.9500    0.0000 C   0  0  0  0  0  0  0  0  0  0  0  0
    4.2868   -4.9500    0.0000 C   0  0  0  0  0  0  0  0  0  0  0  0
    3.5724   -4.5375    0.0000 C   0  0  0  0  0  0  0  0  0  0  0  0
    3.5724   -0.4125    0.0000 C   0  0  0  0  0  0  0  0  0  0  0  0
    3.5724    0.4125    0.0000 C   0  0  0  0  0  0  0  0  0  0  0  0
    4.2868    0.8250    0.0000 C   0  0  0  0  0  0  0  0  0  0  0  0
    5.0013    0.4125    0.0000 C   0  0  0  0  0  0  0  0  0  0  0  0
    5.7158    0.8250    0.0000 O   0  0  0  0  0  0  0  0  0  0  0  0
    5.7158    1.6500    0.0000 C   0  0  0  0  0  0  0  0  0  0  0  0
    5.0013   -0.4125    0.0000 N   0  0  0  0  0  0  0  0  0  0  0  0
    4.2868   -0.8250    0.0000 C   0  0  0  0  0  0  0  0  0  0  0  0
  1  2  1  0  0  0  0
  2  3  1  0  0  0  0
  3  4  1  0  0  0  0
  4  5  2  0  0  0  0
  4  6  1  0  0  0  0
  6  7  1  0  0  0  0
  7  8  2  0  0  0  0
  7  9  1  0  0  0  0
  9 10  1  0  0  0  0
 10 11  1  0  0  0  0
  6 12  1  0  0  0  0
 12 13  2  0  0  0  0
 12 14  1  0  0  0  0
 14 15  2  0  0  0  0
 15 16  1  0  0  0  0
 16 17  2  0  0  0  0
 17 18  1  0  0  0  0
 18 19  2  0  0  0  0
 14 19  1  0  0  0  0
 16 20  1  0  0  0  0
 20 21  2  0  0  0  0
 21 22  1  0  0  0  0
 22 23  2  0  0  0  0
 23 24  1  0  0  0  0
 23 25  1  0  0  0  0
 25 26  2  0  0  0  0
 20 26  1  0  0  0  0
  6 27  1  0  0  0  0
 27 28  2  0  0  0  0
 28 29  1  0  0  0  0
 29 30  2  0  0  0  0
 30 31  1  0  0  0  0
 31 32  1  0  0  0  0
 30 33  1  0  0  0  0
 33 34  2  0  0  0  0
 27 34  1  0  0  0  0
M  END
> <ID>
CPD_3372

$$$$
CPD_3377
  Mrv1822 09091914012D          

 35 37  0  0  0  0            999 V2000
    1.6204    1.3184    0.0000 C   0  0  0  0  0  0  0  0  0  0  0  0
    1.2079    0.6039    0.0000 C   0  0  0  0  0  0  0  0  0  0  0  0
    1.6204   -0.1105    0.0000 O   0  0  0  0  0  0  0  0  0  0  0  0
    2.4454   -0.1105    0.0000 C   0  0  0  0  0  0  0  0  0  0  0  0
    2.8579    0.6039    0.0000 O   0  0  0  0  0  0  0  0  0  0  0  0
    2.8579   -0.8250    0.0000 C   0  0  0  0  0  0  0  0  0  0  0  0
    3.2704   -1.5395    0.0000 C   0  0  0  0  0  0  0  0  0  0  0  0
    3.3566   -2.3600    0.0000 O   0  0  0  0  0  0  0  0  0  0  0  0
    4.0954   -1.5395    0.0000 O   0  0  0  0  0  0  0  0  0  0  0  0
    4.5079   -2.2539    0.0000 C   0  0  0  0  0  0  0  0  0  0  0  0
    5.3329   -2.2539    0.0000 C   0  0  0  0  0  0  0  0  0  0  0  0
    2.1434   -1.2375    0.0000 C   0  0  0  0  0  0  0  0  0  0  0  0
    1.4289   -0.8250    0.0000 O   0  0  0  0  0  0  0  0  0  0  0  0
    2.1434   -2.0625    0.0000 C   0  0  0  0  0  0  0  0  0  0  0  0
    2.8579   -2.4750    0.0000 C   0  0  0  0  0  0  0  0  0  0  0  0
    2.8579   -3.3000    0.0000 C   0  0  0  0  0  0  0  0  0  0  0  0
    2.1434   -3.7125    0.0000 C   0  0  0  0  0  0  0  0  0  0  0  0
    1.4289   -3.3000    0.0000 C   0  0  0  0  0  0  0  0  0  0  0  0
    1.4289   -2.4750    0.0000 C   0  0  0  0  0  0  0  0  0  0  0  0
    3.5724   -3.7125    0.0000 C   0  0  0  0  0  0  0  0  0  0  0  0
    4.2868   -3.3000    0.0000 C   0  0  0  0  0  0  0  0  0  0  0  0
    5.0013   -3.7125    0.0000 C   0  0  0  0  0  0  0  0  0  0  0  0
    5.7158   -3.3000    0.0000 C   0  0  0  0  0  0  0  0  0  0  0  0
    5.0013   -4.5375    0.0000 C   0  0  0  0  0  0  0  0  0  0  0  0
    4.2868   -4.9500    0.0000 C   0  0  0  0  0  0  0  0  0  0  0  0
    3.5724   -4.5375    0.0000 C   0  0  0  0  0  0  0  0  0  0  0  0
    2.8579   -4.9500    0.0000 Br  0  0  0  0  0  0  0  0  0  0  0  0
    3.5724   -0.4125    0.0000 C   0  0  0  0  0  0  0  0  0  0  0  0
    3.5724    0.4125    0.0000 C   0  0  0  0  0  0  0  0  0  0  0  0
    4.2868    0.8250    0.0000 C   0  0  0  0  0  0  0  0  0  0  0  0
    5.0013    0.4125    0.0000 C   0  0  0  0  0  0  0  0  0  0  0  0
    5.7158    0.8250    0.0000 O   0  0  0  0  0  0  0  0  0  0  0  0
    5.7158    1.6500    0.0000 C   0  0  0  0  0  0  0  0  0  0  0  0
    5.0013   -0.4125    0.0000 N   0  0  0  0  0  0  0  0  0  0  0  0
    4.2868   -0.8250    0.0000 C   0  0  0  0  0  0  0  0  0  0  0  0
  1  2  1  0  0  0  0
  2  3  1  0  0  0  0
  3  4  1  0  0  0  0
  4  5  2  0  0  0  0
  4  6  1  0  0  0  0
  6  7  1  0  0  0  0
  7  8  2  0  0  0  0
  7  9  1  0  0  0  0
  9 10  1  0  0  0  0
 10 11  1  0  0  0  0
  6 12  1  0  0  0  0
 12 13  2  0  0  0  0
 12 14  1  0  0  0  0
 14 15  2  0  0  0  0
 15 16  1  0  0  0  0
 16 17  2  0  0  0  0
 17 18  1  0  0  0  0
 18 19  2  0  0  0  0
 14 19  1  0  0  0  0
 16 20  1  0  0  0  0
 20 21  2  0  0  0  0
 21 22  1  0  0  0  0
 22 23  1  0  0  0  0
 22 24  2  0  0  0  0
 24 25  1  0  0  0  0
 25 26  2  0  0  0  0
 20 26  1  0  0  0  0
 26 27  1  0  0  0  0
  6 28  1  0  0  0  0
 28 29  2  0  0  0  0
 29 30  1  0  0  0  0
 30 31  2  0  0  0  0
 31 32  1  0  0  0  0
 32 33  1  0  0  0  0
 31 34  1  0  0  0  0
 34 35  2  0  0  0  0
 28 35  1  0  0  0  0
M  END
> <ID>
CPD_3377

$$$$
CPD_3382
  Mrv1822 09091914012D          

 31 31  0  0  0  0            999 V2000
    0.5230   -0.7441    0.0000 C   0  0  0  0  0  0  0  0  0  0  0  0
   -0.3020   -0.7441    0.0000 C   0  0  0  0  0  0  0  0  0  0  0  0
   -0.7145   -1.4586    0.0000 O   0  0  0  0  0  0  0  0  0  0  0  0
   -0.3020   -2.1730    0.0000 C   0  0  0  0  0  0  0  0  0  0  0  0
    0.5230   -2.1730    0.0000 O   0  0  0  0  0  0  0  0  0  0  0  0
   -0.7145   -2.8875    0.0000 C   0  0  0  0  0  0  0  0  0  0  0  0
    0.0000   -3.3000    0.0000 C   0  0  0  0  0  0  0  0  0  0  0  0
    0.0000   -4.1250    0.0000 O   0  0  0  0  0  0  0  0  0  0  0  0
    0.7145   -2.8875    0.0000 C   0  0  0  0  0  0  0  0  0  0  0  0
    1.4289   -3.3000    0.0000 C   0  0  0  0  0  0  0  0  0  0  0  0
    2.1434   -2.8875    0.0000 N   0  0  0  0  0  0  0  0  0  0  0  0
    2.8579   -3.3000    0.0000 C   0  0  0  0  0  0  0  0  0  0  0  0
    3.5724   -2.8875    0.0000 C   0  0  0  0  0  0  0  0  0  0  0  0
    4.2868   -3.3000    0.0000 C   0  0  0  0  0  0  0  0  0  0  0  0
    5.0013   -2.8875    0.0000 O   0  0  0  0  0  0  0  0  0  0  0  0
    5.7158   -3.3000    0.0000 C   0  0  0  0  0  0  0  0  0  0  0  0
    6.4302   -2.8875    0.0000 C   0  0  0  0  0  0  0  0  0  0  0  0
    5.7158   -4.1250    0.0000 C   0  0  0  0  0  0  0  0  0  0  0  0
   -1.1270   -3.6020    0.0000 C   0  0  0  0  0  0  0  0  0  0  0  0
   -1.9520   -3.6020    0.0000 O   0  0  0  0  0  0  0  0  0  0  0  0
   -0.7145   -4.3164    0.0000 O   0  0  0  0  0  0  0  0  0  0  0  0
   -1.1270   -5.0309    0.0000 C   0  0  0  0  0  0  0  0  0  0  0  0
   -1.9520   -5.0309    0.0000 C   0  0  0  0  0  0  0  0  0  0  0  0
   -1.4289   -2.4750    0.0000 C   0  0  0  0  0  0  0  0  0  0  0  0
   -2.1434   -2.8875    0.0000 C   0  0  0  0  0  0  0  0  0  0  0  0
   -2.8579   -2.4750    0.0000 C   0  0  0  0  0  0  0  0  0  0  0  0
   -2.8579   -1.6500    0.0000 C   0  0  0  0  0  0  0  0  0  0  0  0
   -3.5724   -1.2375    0.0000 O   0  0  0  0  0  0  0  0  0  0  0  0
   -4.2868   -1.6500    0.0000 C   0  0  0  0  0  0  0  0  0  0  0  0
   -2.1434   -1.2375    0.0000 N   0  0  0  0  0  0  0  0  0  0  0  0
   -1.4289   -1.6500    0.0000 C   0  0  0  0  0  0  0  0  0  0  0  0
  1  2  1  0  0  0  0
  2  3  1  0  0  0  0
  3  4  1  0  0  0  0
  4  5  2  0  0  0  0
  4  6  1  0  0  0  0
  6  7  1  0  0  0  0
  7  8  2  0  0  0  0
  7  9  1  0  0  0  0
  9 10  1  0  0  0  0
 10 11  1  0  0  0  0
 11 12  1  0  0  0  0
 12 13  1  0  0  0  0
 13 14  1  0  0  0  0
 14 15  1  0  0  0  0
 15 16  1  0  0  0  0
 16 17  1  0  0  0  0
 16 18  1  0  0  0  0
  6 19  1  0  0  0  0
 19 20  2  0  0  0  0
 19 21  1  0  0  0  0
 21 22  1  0  0  0  0
 22 23  1  0  0  0  0
  6 24  1  0  0  0  0
 24 25  2  0  0  0  0
 25 26  1  0  0  0  0
 26 27  2  0  0  0  0
 27 28  1  0  0  0  0
 28 29  1  0  0  0  0
 27 30  1  0  0  0  0
 30 31  2  0  0  0  0
 24 31  1  0  0  0  0
M  END
> <ID>
CPD_3382

$$$$
CPD_3387
  Mrv1822 09091914012D          

 27 27  0  0  0  0            999 V2000
    0.7563   -5.0193    0.0000 C   0  0  0  0  0  0  0  0  0  0  0  0
    1.5489   -4.7905    0.0000 C   0  0  0  0  0  0  0  0  0  0  0  0
    2.1434   -5.3625    0.0000 C   0  0  0  0  0  0  0  0  0  0  0  0
    2.9360   -5.1337    0.0000 C   0  0  0  0  0  0  0  0  0  0  0  0
    3.5305   -5.7057    0.0000 C   0  0  0  0  0  0  0  0  0  0  0  0
    4.3232   -5.4769    0.0000 C   0  0  0  0  0  0  0  0  0  0  0  0
    4.9176   -6.0489    0.0000 C   0  0  0  0  0  0  0  0  0  0  0  0
    5.7103   -5.8201    0.0000 C   0  0  0  0  0  0  0  0  0  0  0  0
    5.9084   -5.0193    0.0000 O   0  0  0  0  0  0  0  0  0  0  0  0
    6.3047   -6.3922    0.0000 C   0  0  0  0  0  0  0  0  0  0  0  0
    6.1066   -7.1930    0.0000 N   0  0  0  0  0  0  0  0  0  0  0  0
    6.7011   -7.7650    0.0000 C   0  0  0  0  0  0  0  0  0  0  0  0
    7.4937   -7.5362    0.0000 C   0  0  0  0  0  0  0  0  0  0  0  0
    8.0882   -8.1083    0.0000 C   0  0  0  0  0  0  0  0  0  0  0  0
    7.8900   -8.9091    0.0000 C   0  0  0  0  0  0  0  0  0  0  0  0
    7.0974   -9.1379    0.0000 C   0  0  0  0  0  0  0  0  0  0  0  0
    6.5029   -8.5659    0.0000 C   0  0  0  0  0  0  0  0  0  0  0  0
    5.7103   -8.7947    0.0000 O   0  0  0  0  0  0  0  0  0  0  0  0
    5.5121   -9.5956    0.0000 C   0  0  0  0  0  0  0  0  0  0  0  0
    5.3140   -7.4218    0.0000 S   0  0  0  0  0  0  0  0  0  0  0  0
    5.5428   -8.2145    0.0000 C   0  0  0  0  0  0  0  0  0  0  0  0
    4.5213   -7.6506    0.0000 O   0  0  0  0  0  0  0  0  0  0  0  0
    5.0851   -6.6292    0.0000 O   0  0  0  0  0  0  0  0  0  0  0  0
    7.0974   -6.1633    0.0000 C   0  0  0  0  0  0  0  0  0  0  0  0
    7.6919   -6.7354    0.0000 O   0  0  0  0  0  0  0  0  0  0  0  0
    7.2955   -5.3625    0.0000 O   0  0  0  0  0  0  0  0  0  0  0  0
    8.0882   -5.1337    0.0000 C   0  0  0  0  0  0  0  0  0  0  0  0
  1  2  1  0  0  0  0
  2  3  1  0  0  0  0
  3  4  1  0  0  0  0
  4  5  1  0  0  0  0
  5  6  1  0  0  0  0
  6  7  1  0  0  0  0
  7  8  1  0  0  0  0
  8  9  2  0  0  0  0
  8 10  1  0  0  0  0
 10 11  1  0  0  0  0
 11 12  1  0  0  0  0
 12 13  2  0  0  0  0
 13 14  1  0  0  0  0
 14 15  2  0  0  0  0
 15 16  1  0  0  0  0
 16 17  2  0  0  0  0
 12 17  1  0  0  0  0
 17 18  1  0  0  0  0
 18 19  1  0  0  0  0
 11 20  1  0  0  0  0
 20 21  1  0  0  0  0
 20 22  2  0  0  0  0
 20 23  2  0  0  0  0
 10 24  1  0  0  0  0
 24 25  2  0  0  0  0
 24 26  1  0  0  0  0
 26 27  1  0  0  0  0
M  END
> <ID>
CPD_3387

$$$$
CPD_3392
  Mrv1822 09091914012D          

 24 24  0  0  0  0            999 V2000
    2.1434    1.2375    0.0000 C   0  0  0  0  0  0  0  0  0  0  0  0
    2.1434    0.4125    0.0000 O   0  0  0  0  0  0  0  0  0  0  0  0
    1.4289   -0.0000    0.0000 C   0  0  0  0  0  0  0  0  0  0  0  0
    0.7145    0.4125    0.0000 O   0  0  0  0  0  0  0  0  0  0  0  0
    1.4289   -0.8250    0.0000 C   0  0  0  0  0  0  0  0  0  0  0  0
    0.7145   -1.2375    0.0000 N   0  0  0  0  0  0  0  0  0  0  0  0
    0.7145   -2.0625    0.0000 C   0  0  0  0  0  0  0  0  0  0  0  0
    1.4289   -2.4750    0.0000 C   0  0  0  0  0  0  0  0  0  0  0  0
    1.4289   -3.3000    0.0000 C   0  0  0  0  0  0  0  0  0  0  0  0
    0.7145   -3.7125    0.0000 C   0  0  0  0  0  0  0  0  0  0  0  0
    0.0000   -3.3000    0.0000 C   0  0  0  0  0  0  0  0  0  0  0  0
    0.0000   -2.4750    0.0000 C   0  0  0  0  0  0  0  0  0  0  0  0
   -0.7145   -2.0625    0.0000 O   0  0  0  0  0  0  0  0  0  0  0  0
   -1.4289   -2.4750    0.0000 C   0  0  0  0  0  0  0  0  0  0  0  0
    0.0000   -0.8250    0.0000 S   0  0  0  0  0  0  0  0  0  0  0  0
   -0.7145   -0.4125    0.0000 C   0  0  0  0  0  0  0  0  0  0  0  0
    0.4125   -0.1105    0.0000 O   0  0  0  0  0  0  0  0  0  0  0  0
   -0.4125   -1.5395    0.0000 O   0  0  0  0  0  0  0  0  0  0  0  0
    2.1434   -1.2375    0.0000 C   0  0  0  0  0  0  0  0  0  0  0  0
    2.1434   -2.0625    0.0000 O   0  0  0  0  0  0  0  0  0  0  0  0
    2.8579   -0.8250    0.0000 C   0  0  0  0  0  0  0  0  0  0  0  0
    3.5724   -1.2375    0.0000 C   0  0  0  0  0  0  0  0  0  0  0  0
    4.2868   -0.8250    0.0000 C   0  0  0  0  0  0  0  0  0  0  0  0
    3.5724   -2.0625    0.0000 C   0  0  0  0  0  0  0  0  0  0  0  0
  1  2  1  0  0  0  0
  2  3  1  0  0  0  0
  3  4  2  0  0  0  0
  3  5  1  0  0  0  0
  5  6  1  0  0  0  0
  6  7  1  0  0  0  0
  7  8  2  0  0  0  0
  8  9  1  0  0  0  0
  9 10  2  0  0  0  0
 10 11  1  0  0  0  0
 11 12  2  0  0  0  0
  7 12  1  0  0  0  0
 12 13  1  0  0  0  0
 13 14  1  0  0  0  0
  6 15  1  0  0  0  0
 15 16  1  0  0  0  0
 15 17  2  0  0  0  0
 15 18  2  0  0  0  0
  5 19  1  0  0  0  0
 19 20  2  0  0  0  0
 19 21  1  0  0  0  0
 21 22  1  0  0  0  0
 22 23  1  0  0  0  0
 22 24  1  0  0  0  0
M  END
> <ID>
CPD_3392

$$$$
CPD_3397
  Mrv1822 09091914012D          

 30 31  0  0  0  0            999 V2000
   -1.8414   -1.7605    0.0000 C   0  0  0  0  0  0  0  0  0  0  0  0
   -1.4289   -2.4750    0.0000 O   0  0  0  0  0  0  0  0  0  0  0  0
   -0.6039   -2.4750    0.0000 C   0  0  0  0  0  0  0  0  0  0  0  0
   -0.1914   -1.7605    0.0000 O   0  0  0  0  0  0  0  0  0  0  0  0
   -0.1914   -3.1895    0.0000 C   0  0  0  0  0  0  0  0  0  0  0  0
    0.6336   -3.1895    0.0000 N   0  0  0  0  0  0  0  0  0  0  0  0
    1.0461   -3.9039    0.0000 C   0  0  0  0  0  0  0  0  0  0  0  0
    0.6336   -4.6184    0.0000 C   0  0  0  0  0  0  0  0  0  0  0  0
    1.0461   -5.3329    0.0000 C   0  0  0  0  0  0  0  0  0  0  0  0
    0.6336   -6.0474    0.0000 C   0  0  0  0  0  0  0  0  0  0  0  0
    1.8711   -5.3329    0.0000 C   0  0  0  0  0  0  0  0  0  0  0  0
    2.2836   -4.6184    0.0000 C   0  0  0  0  0  0  0  0  0  0  0  0
    1.8711   -3.9039    0.0000 C   0  0  0  0  0  0  0  0  0  0  0  0
    1.0461   -2.4750    0.0000 S   0  0  0  0  0  0  0  0  0  0  0  0
    1.7605   -2.8875    0.0000 O   0  0  0  0  0  0  0  0  0  0  0  0
    0.3316   -2.0625    0.0000 O   0  0  0  0  0  0  0  0  0  0  0  0
    1.4586   -1.7605    0.0000 C   0  0  0  0  0  0  0  0  0  0  0  0
    1.0461   -1.0461    0.0000 C   0  0  0  0  0  0  0  0  0  0  0  0
    1.4586   -0.3316    0.0000 C   0  0  0  0  0  0  0  0  0  0  0  0
    2.2836   -0.3316    0.0000 C   0  0  0  0  0  0  0  0  0  0  0  0
    2.6961    0.3829    0.0000 C   0  0  0  0  0  0  0  0  0  0  0  0
    2.6961   -1.0461    0.0000 C   0  0  0  0  0  0  0  0  0  0  0  0
    2.2836   -1.7605    0.0000 C   0  0  0  0  0  0  0  0  0  0  0  0
   -0.6039   -3.9039    0.0000 C   0  0  0  0  0  0  0  0  0  0  0  0
   -0.1914   -4.6184    0.0000 O   0  0  0  0  0  0  0  0  0  0  0  0
   -1.4289   -3.9039    0.0000 O   0  0  0  0  0  0  0  0  0  0  0  0
   -1.8414   -4.6184    0.0000 C   0  0  0  0  0  0  0  0  0  0  0  0
   -2.2539   -5.3329    0.0000 C   0  0  0  0  0  0  0  0  0  0  0  0
   -2.5559   -4.2059    0.0000 C   0  0  0  0  0  0  0  0  0  0  0  0
   -1.1270   -5.0309    0.0000 C   0  0  0  0  0  0  0  0  0  0  0  0
  1  2  1  0  0  0  0
  2  3  1  0  0  0  0
  3  4  2  0  0  0  0
  3  5  1  0  0  0  0
  5  6  1  0  0  0  0
  6  7  1  0  0  0  0
  7  8  2  0  0  0  0
  8  9  1  0  0  0  0
  9 10  1  0  0  0  0
  9 11  2  0  0  0  0
 11 12  1  0  0  0  0
 12 13  2  0  0  0  0
  7 13  1  0  0  0  0
  6 14  1  0  0  0  0
 14 15  2  0  0  0  0
 14 16  2  0  0  0  0
 14 17  1  0  0  0  0
 17 18  2  0  0  0  0
 18 19  1  0  0  0  0
 19 20  2  0  0  0  0
 20 21  1  0  0  0  0
 20 22  1  0  0  0  0
 22 23  2  0  0  0  0
 17 23  1  0  0  0  0
  5 24  1  0  0  0  0
 24 25  2  0  0  0  0
 24 26  1  0  0  0  0
 26 27  1  0  0  0  0
 27 28  1  0  0  0  0
 27 29  1  0  0  0  0
 27 30  1  0  0  0  0
M  END
> <ID>
CPD_3397

$$$$
CPD_3402
  Mrv1822 09091914012D          

 39 42  0  0  0  0            999 V2000
   -1.4289   -2.4750    0.0000 C   0  0  0  0  0  0  0  0  0  0  0  0
   -0.7145   -2.8875    0.0000 O   0  0  0  0  0  0  0  0  0  0  0  0
    0.0000   -2.4750    0.0000 C   0  0  0  0  0  0  0  0  0  0  0  0
    0.0000   -1.6500    0.0000 O   0  0  0  0  0  0  0  0  0  0  0  0
    0.7145   -2.8875    0.0000 C   0  0  0  0  0  0  0  0  0  0  0  0
    1.4289   -2.4750    0.0000 N   0  0  0  0  0  0  0  0  0  0  0  0
    1.4289   -1.6500    0.0000 C   0  0  0  0  0  0  0  0  0  0  0  0
    2.1434   -1.2375    0.0000 C   0  0  0  0  0  0  0  0  0  0  0  0
    2.1434   -0.4125    0.0000 C   0  0  0  0  0  0  0  0  0  0  0  0
    2.8579    0.0000    0.0000 C   0  0  0  0  0  0  0  0  0  0  0  0
    1.4289    0.0000    0.0000 C   0  0  0  0  0  0  0  0  0  0  0  0
    0.7145   -0.4125    0.0000 C   0  0  0  0  0  0  0  0  0  0  0  0
    0.7145   -1.2375    0.0000 C   0  0  0  0  0  0  0  0  0  0  0  0
    2.1434   -2.8875    0.0000 S   0  0  0  0  0  0  0  0  0  0  0  0
    2.5559   -2.1730    0.0000 O   0  0  0  0  0  0  0  0  0  0  0  0
    1.7309   -3.6020    0.0000 O   0  0  0  0  0  0  0  0  0  0  0  0
    2.8579   -3.3000    0.0000 C   0  0  0  0  0  0  0  0  0  0  0  0
    3.5724   -2.8875    0.0000 C   0  0  0  0  0  0  0  0  0  0  0  0
    4.2868   -3.3000    0.0000 C   0  0  0  0  0  0  0  0  0  0  0  0
    4.2868   -4.1250    0.0000 C   0  0  0  0  0  0  0  0  0  0  0  0
    5.0013   -4.5375    0.0000 C   0  0  0  0  0  0  0  0  0  0  0  0
    3.5724   -4.5375    0.0000 C   0  0  0  0  0  0  0  0  0  0  0  0
    2.8579   -4.1250    0.0000 C   0  0  0  0  0  0  0  0  0  0  0  0
    0.7145   -3.7125    0.0000 C   0  0  0  0  0  0  0  0  0  0  0  0
    1.4289   -4.1250    0.0000 O   0  0  0  0  0  0  0  0  0  0  0  0
    0.0000   -4.1250    0.0000 C   0  0  0  0  0  0  0  0  0  0  0  0
   -0.7145   -3.7125    0.0000 C   0  0  0  0  0  0  0  0  0  0  0  0
   -1.4289   -4.1250    0.0000 C   0  0  0  0  0  0  0  0  0  0  0  0
   -1.4289   -4.9500    0.0000 C   0  0  0  0  0  0  0  0  0  0  0  0
   -0.7145   -5.3625    0.0000 N   0  0  0  0  0  0  0  0  0  0  0  0
    0.0000   -4.9500    0.0000 C   0  0  0  0  0  0  0  0  0  0  0  0
    0.7145   -5.3625    0.0000 C   0  0  0  0  0  0  0  0  0  0  0  0
    1.4289   -4.9500    0.0000 C   0  0  0  0  0  0  0  0  0  0  0  0
    2.1434   -5.3625    0.0000 C   0  0  0  0  0  0  0  0  0  0  0  0
    2.1434   -6.1875    0.0000 C   0  0  0  0  0  0  0  0  0  0  0  0
    1.4289   -6.6000    0.0000 C   0  0  0  0  0  0  0  0  0  0  0  0
    0.7145   -6.1875    0.0000 C   0  0  0  0  0  0  0  0  0  0  0  0
    1.4289   -7.4250    0.0000 C   0  0  0  0  0  0  0  0  0  0  0  0
    1.4289   -8.2500    0.0000 N   0  0  0  0  0  0  0  0  0  0  0  0
  1  2  1  0  0  0  0
  2  3  1  0  0  0  0
  3  4  2  0  0  0  0
  3  5  1  0  0  0  0
  5  6  1  0  0  0  0
  6  7  1  0  0  0  0
  7  8  2  0  0  0  0
  8  9  1  0  0  0  0
  9 10  1  0  0  0  0
  9 11  2  0  0  0  0
 11 12  1  0  0  0  0
 12 13  2  0  0  0  0
  7 13  1  0  0  0  0
  6 14  1  0  0  0  0
 14 15  2  0  0  0  0
 14 16  2  0  0  0  0
 14 17  1  0  0  0  0
 17 18  2  0  0  0  0
 18 19  1  0  0  0  0
 19 20  2  0  0  0  0
 20 21  1  0  0  0  0
 20 22  1  0  0  0  0
 22 23  2  0  0  0  0
 17 23  1  0  0  0  0
  5 24  1  0  0  0  0
 24 25  2  0  0  0  0
 24 26  1  0  0  0  0
 26 27  2  0  0  0  0
 27 28  1  0  0  0  0
 28 29  2  0  0  0  0
 29 30  1  0  0  0  0
 30 31  2  0  0  0  0
 26 31  1  0  0  0  0
 31 32  1  0  0  0  0
 32 33  2  0  0  0  0
 33 34  1  0  0  0  0
 34 35  2  0  0  0  0
 35 36  1  0  0  0  0
 36 37  2  0  0  0  0
 32 37  1  0  0  0  0
 36 38  1  0  0  0  0
 38 39  3  0  0  0  0
M  END
> <ID>
CPD_3402

$$$$
CPD_3407
  Mrv1822 09091914012D          

 33 34  0  0  0  0            999 V2000
    1.7309    0.0809    0.0000 C   0  0  0  0  0  0  0  0  0  0  0  0
    2.1434   -0.6336    0.0000 O   0  0  0  0  0  0  0  0  0  0  0  0
    1.7309   -1.3480    0.0000 C   0  0  0  0  0  0  0  0  0  0  0  0
    0.9059   -1.3480    0.0000 O   0  0  0  0  0  0  0  0  0  0  0  0
    2.1434   -2.0625    0.0000 C   0  0  0  0  0  0  0  0  0  0  0  0
    2.5559   -2.7770    0.0000 C   0  0  0  0  0  0  0  0  0  0  0  0
    1.4289   -2.4750    0.0000 N   0  0  0  0  0  0  0  0  0  0  0  0
    1.4289   -3.3000    0.0000 C   0  0  0  0  0  0  0  0  0  0  0  0
    2.1434   -3.7125    0.0000 C   0  0  0  0  0  0  0  0  0  0  0  0
    2.1434   -4.5375    0.0000 C   0  0  0  0  0  0  0  0  0  0  0  0
    1.4289   -4.9500    0.0000 C   0  0  0  0  0  0  0  0  0  0  0  0
    1.4289   -5.7750    0.0000 O   0  0  0  0  0  0  0  0  0  0  0  0
    0.7145   -6.1875    0.0000 C   0  0  0  0  0  0  0  0  0  0  0  0
    0.7145   -4.5375    0.0000 C   0  0  0  0  0  0  0  0  0  0  0  0
    0.7145   -3.7125    0.0000 C   0  0  0  0  0  0  0  0  0  0  0  0
    0.7145   -2.0625    0.0000 S   0  0  0  0  0  0  0  0  0  0  0  0
    0.6282   -1.2420    0.0000 C   0  0  0  0  0  0  0  0  0  0  0  0
    0.3020   -2.7770    0.0000 O   0  0  0  0  0  0  0  0  0  0  0  0
    0.0000   -1.6500    0.0000 O   0  0  0  0  0  0  0  0  0  0  0  0
    2.8579   -1.6500    0.0000 C   0  0  0  0  0  0  0  0  0  0  0  0
    2.8579   -0.8250    0.0000 O   0  0  0  0  0  0  0  0  0  0  0  0
    3.5724   -2.0625    0.0000 O   0  0  0  0  0  0  0  0  0  0  0  0
    4.2868   -1.6500    0.0000 C   0  0  0  0  0  0  0  0  0  0  0  0
    4.2868   -0.8250    0.0000 C   0  0  0  0  0  0  0  0  0  0  0  0
    3.5724   -0.4125    0.0000 Cl  0  0  0  0  0  0  0  0  0  0  0  0
    5.0013   -0.4125    0.0000 C   0  0  0  0  0  0  0  0  0  0  0  0
    5.7158   -0.8250    0.0000 C   0  0  0  0  0  0  0  0  0  0  0  0
    5.7158   -1.6500    0.0000 N   0  0  0  0  0  0  0  0  0  0  0  0
    5.0013   -2.0625    0.0000 C   0  0  0  0  0  0  0  0  0  0  0  0
    5.0013   -2.8875    0.0000 C   0  0  0  0  0  0  0  0  0  0  0  0
    5.0013   -3.7125    0.0000 C   0  0  0  0  0  0  0  0  0  0  0  0
    5.0013   -4.5375    0.0000 C   0  0  0  0  0  0  0  0  0  0  0  0
    5.7158   -4.9500    0.0000 O   0  0  0  0  0  0  0  0  0  0  0  0
  1  2  1  0  0  0  0
  2  3  1  0  0  0  0
  3  4  2  0  0  0  0
  3  5  1  0  0  0  0
  5  6  1  0  0  0  0
  5  7  1  0  0  0  0
  7  8  1  0  0  0  0
  8  9  2  0  0  0  0
  9 10  1  0  0  0  0
 10 11  2  0  0  0  0
 11 12  1  0  0  0  0
 12 13  1  0  0  0  0
 11 14  1  0  0  0  0
 14 15  2  0  0  0  0
  8 15  1  0  0  0  0
  7 16  1  0  0  0  0
 16 17  1  0  0  0  0
 16 18  2  0  0  0  0
 16 19  2  0  0  0  0
  5 20  1  0  0  0  0
 20 21  2  0  0  0  0
 20 22  1  0  0  0  0
 22 23  1  0  0  0  0
 23 24  2  0  0  0  0
 24 25  1  0  0  0  0
 24 26  1  0  0  0  0
 26 27  2  0  0  0  0
 27 28  1  0  0  0  0
 28 29  2  0  0  0  0
 23 29  1  0  0  0  0
 29 30  1  0  0  0  0
 30 31  3  0  0  0  0
 31 32  1  0  0  0  0
 32 33  1  0  0  0  0
M  END
> <ID>
CPD_3407

$$$$
CPD_3412
  Mrv1822 09091914012D          

 28 29  0  0  0  0            999 V2000
   -1.1012    2.0691    0.0000 C   0  0  0  0  0  0  0  0  0  0  0  0
   -1.5137    1.3547    0.0000 O   0  0  0  0  0  0  0  0  0  0  0  0
   -2.3387    1.3547    0.0000 C   0  0  0  0  0  0  0  0  0  0  0  0
   -2.7512    2.0691    0.0000 O   0  0  0  0  0  0  0  0  0  0  0  0
   -2.7512    0.6402    0.0000 C   0  0  0  0  0  0  0  0  0  0  0  0
   -3.1637   -0.0743    0.0000 C   0  0  0  0  0  0  0  0  0  0  0  0
   -3.4656    1.0527    0.0000 N   0  0  0  0  0  0  0  0  0  0  0  0
   -4.1801    0.6402    0.0000 C   0  0  0  0  0  0  0  0  0  0  0  0
   -4.1801   -0.1848    0.0000 C   0  0  0  0  0  0  0  0  0  0  0  0
   -4.8946   -0.5973    0.0000 C   0  0  0  0  0  0  0  0  0  0  0  0
   -5.6091   -0.1848    0.0000 C   0  0  0  0  0  0  0  0  0  0  0  0
   -6.3235   -0.5973    0.0000 O   0  0  0  0  0  0  0  0  0  0  0  0
   -6.3235   -1.4223    0.0000 C   0  0  0  0  0  0  0  0  0  0  0  0
   -5.6091    0.6402    0.0000 C   0  0  0  0  0  0  0  0  0  0  0  0
   -4.8946    1.0527    0.0000 C   0  0  0  0  0  0  0  0  0  0  0  0
   -3.4656    1.8777    0.0000 S   0  0  0  0  0  0  0  0  0  0  0  0
   -2.7982    2.3626    0.0000 C   0  0  0  0  0  0  0  0  0  0  0  0
   -4.2906    1.8777    0.0000 O   0  0  0  0  0  0  0  0  0  0  0  0
   -3.4656    2.7027    0.0000 O   0  0  0  0  0  0  0  0  0  0  0  0
   -2.0367    0.2277    0.0000 C   0  0  0  0  0  0  0  0  0  0  0  0
   -1.3222    0.6402    0.0000 O   0  0  0  0  0  0  0  0  0  0  0  0
   -2.0367   -0.5973    0.0000 C   0  0  0  0  0  0  0  0  0  0  0  0
   -1.3693   -1.0822    0.0000 C   0  0  0  0  0  0  0  0  0  0  0  0
   -1.6242   -1.8669    0.0000 N   0  0  0  0  0  0  0  0  0  0  0  0
   -2.4492   -1.8669    0.0000 N   0  0  0  0  0  0  0  0  0  0  0  0
   -2.7041   -1.0822    0.0000 C   0  0  0  0  0  0  0  0  0  0  0  0
   -0.5846   -0.8273    0.0000 C   0  0  0  0  0  0  0  0  0  0  0  0
    0.2000   -0.5724    0.0000 N   0  0  0  0  0  0  0  0  0  0  0  0
  1  2  1  0  0  0  0
  2  3  1  0  0  0  0
  3  4  2  0  0  0  0
  3  5  1  0  0  0  0
  5  6  1  0  0  0  0
  5  7  1  0  0  0  0
  7  8  1  0  0  0  0
  8  9  2  0  0  0  0
  9 10  1  0  0  0  0
 10 11  2  0  0  0  0
 11 12  1  0  0  0  0
 12 13  1  0  0  0  0
 11 14  1  0  0  0  0
 14 15  2  0  0  0  0
  8 15  1  0  0  0  0
  7 16  1  0  0  0  0
 16 17  1  0  0  0  0
 16 18  2  0  0  0  0
 16 19  2  0  0  0  0
  5 20  1  0  0  0  0
 20 21  2  0  0  0  0
 20 22  1  0  0  0  0
 22 23  2  0  0  0  0
 23 24  1  0  0  0  0
 24 25  1  0  0  0  0
 25 26  2  0  0  0  0
 22 26  1  0  0  0  0
 23 27  1  0  0  0  0
 27 28  3  0  0  0  0
M  END
> <ID>
CPD_3412

$$$$
CPD_3417
  Mrv1822 09091914012D          

 31 31  0  0  0  0            999 V2000
   -1.1691    2.1000    0.0000 O   0  0  0  0  0  0  0  0  0  0  0  0
   -0.4547    1.6875    0.0000 C   0  0  0  0  0  0  0  0  0  0  0  0
    0.2598    2.1000    0.0000 O   0  0  0  0  0  0  0  0  0  0  0  0
   -0.4547    0.8625    0.0000 C   0  0  0  0  0  0  0  0  0  0  0  0
    0.2598    0.4500    0.0000 O   0  0  0  0  0  0  0  0  0  0  0  0
    0.2598   -0.3750    0.0000 C   0  0  0  0  0  0  0  0  0  0  0  0
    0.9743   -0.7875    0.0000 C   0  0  0  0  0  0  0  0  0  0  0  0
    0.9743   -1.6125    0.0000 C   0  0  0  0  0  0  0  0  0  0  0  0
    0.2598   -2.0250    0.0000 C   0  0  0  0  0  0  0  0  0  0  0  0
   -0.4547   -1.6125    0.0000 N   0  0  0  0  0  0  0  0  0  0  0  0
   -0.4547   -0.7875    0.0000 C   0  0  0  0  0  0  0  0  0  0  0  0
    3.3314    1.0692    0.0000 C   0  0  0  0  0  0  0  0  0  0  0  0
    4.1439    1.2125    0.0000 C   0  0  0  0  0  0  0  0  0  0  0  0
    4.6742    0.5805    0.0000 O   0  0  0  0  0  0  0  0  0  0  0  0
    5.4867    0.7238    0.0000 C   0  0  0  0  0  0  0  0  0  0  0  0
    5.7688    1.4990    0.0000 O   0  0  0  0  0  0  0  0  0  0  0  0
    6.0170    0.0918    0.0000 C   0  0  0  0  0  0  0  0  0  0  0  0
    6.7314   -0.3207    0.0000 C   0  0  0  0  0  0  0  0  0  0  0  0
    6.7314   -1.1457    0.0000 C   0  0  0  0  0  0  0  0  0  0  0  0
    6.0170   -1.5582    0.0000 C   0  0  0  0  0  0  0  0  0  0  0  0
    5.3025   -1.1457    0.0000 N   0  0  0  0  0  0  0  0  0  0  0  0
    5.3025   -0.3207    0.0000 C   0  0  0  0  0  0  0  0  0  0  0  0
    4.5880   -1.5582    0.0000 C   0  0  0  0  0  0  0  0  0  0  0  0
    4.5880   -2.3832    0.0000 C   0  0  0  0  0  0  0  0  0  0  0  0
    3.8735   -1.1457    0.0000 C   0  0  0  0  0  0  0  0  0  0  0  0
    6.5473    0.7238    0.0000 C   0  0  0  0  0  0  0  0  0  0  0  0
    6.2651    1.4990    0.0000 O   0  0  0  0  0  0  0  0  0  0  0  0
    7.3597    0.5805    0.0000 C   0  0  0  0  0  0  0  0  0  0  0  0
    7.2165   -0.2320    0.0000 F   0  0  0  0  0  0  0  0  0  0  0  0
    7.5030    1.3930    0.0000 F   0  0  0  0  0  0  0  0  0  0  0  0
    8.1722    0.4372    0.0000 F   0  0  0  0  0  0  0  0  0  0  0  0
  1  2  1  0  0  0  0
  2  3  2  0  0  0  0
  2  4  1  0  0  0  0
  4  5  1  0  0  0  0
  5  6  1  0  0  0  0
  6  7  2  0  0  0  0
  7  8  1  0  0  0  0
  8  9  2  0  0  0  0
  9 10  1  0  0  0  0
 10 11  2  0  0  0  0
  6 11  1  0  0  0  0
 12 13  1  0  0  0  0
 13 14  1  0  0  0  0
 14 15  1  0  0  0  0
 15 16  2  0  0  0  0
 15 17  1  0  0  0  0
 17 18  1  0  0  0  0
 18 19  1  0  0  0  0
 19 20  1  0  0  0  0
 20 21  1  0  0  0  0
 21 22  1  0  0  0  0
 17 22  1  0  0  0  0
 21 23  1  0  0  0  0
 23 24  1  0  0  0  0
 23 25  1  0  0  0  0
 17 26  1  0  0  0  0
 26 27  2  0  0  0  0
 26 28  1  0  0  0  0
 28 29  1  0  0  0  0
 28 30  1  0  0  0  0
 28 31  1  0  0  0  0
M  END
> <ID>
CPD_3417

$$$$
CPD_3422
  Mrv1822 09091914012D          

 29 31  0  0  0  0            999 V2000
    0.9532    2.2641    0.0000 C   0  0  0  0  0  0  0  0  0  0  0  0
    0.6710    1.4889    0.0000 C   0  0  0  0  0  0  0  0  0  0  0  0
   -0.1414    1.3456    0.0000 O   0  0  0  0  0  0  0  0  0  0  0  0
   -0.4236    0.5704    0.0000 C   0  0  0  0  0  0  0  0  0  0  0  0
   -1.2361    0.4271    0.0000 O   0  0  0  0  0  0  0  0  0  0  0  0
    0.1067   -0.0616    0.0000 C   0  0  0  0  0  0  0  0  0  0  0  0
    0.3889   -0.8369    0.0000 C   0  0  0  0  0  0  0  0  0  0  0  0
    1.2013   -0.9801    0.0000 C   0  0  0  0  0  0  0  0  0  0  0  0
    1.7316   -0.3481    0.0000 C   0  0  0  0  0  0  0  0  0  0  0  0
    1.4495    0.4271    0.0000 N   0  0  0  0  0  0  0  0  0  0  0  0
    0.6370    0.5704    0.0000 C   0  0  0  0  0  0  0  0  0  0  0  0
    1.9798    1.0591    0.0000 C   0  0  0  0  0  0  0  0  0  0  0  0
    2.7922    0.9158    0.0000 C   0  0  0  0  0  0  0  0  0  0  0  0
    1.6976    1.8344    0.0000 C   0  0  0  0  0  0  0  0  0  0  0  0
   -0.6078   -0.4741    0.0000 C   0  0  0  0  0  0  0  0  0  0  0  0
   -1.3222   -0.0616    0.0000 O   0  0  0  0  0  0  0  0  0  0  0  0
   -0.6078   -1.2991    0.0000 C   0  0  0  0  0  0  0  0  0  0  0  0
    0.0597   -1.7840    0.0000 C   0  0  0  0  0  0  0  0  0  0  0  0
   -0.1953   -2.5687    0.0000 N   0  0  0  0  0  0  0  0  0  0  0  0
   -1.0203   -2.5687    0.0000 C   0  0  0  0  0  0  0  0  0  0  0  0
   -1.5052   -3.2361    0.0000 S   0  0  0  0  0  0  0  0  0  0  0  0
   -1.2752   -1.7840    0.0000 N   0  0  0  0  0  0  0  0  0  0  0  0
   -2.0598   -1.5291    0.0000 C   0  0  0  0  0  0  0  0  0  0  0  0
   -2.6729   -2.0811    0.0000 C   0  0  0  0  0  0  0  0  0  0  0  0
   -2.5014   -2.8881    0.0000 C   0  0  0  0  0  0  0  0  0  0  0  0
   -3.1145   -3.4401    0.0000 C   0  0  0  0  0  0  0  0  0  0  0  0
   -3.8991   -3.1852    0.0000 C   0  0  0  0  0  0  0  0  0  0  0  0
   -4.0706   -2.3782    0.0000 C   0  0  0  0  0  0  0  0  0  0  0  0
   -3.4575   -1.8262    0.0000 C   0  0  0  0  0  0  0  0  0  0  0  0
  1  2  1  0  0  0  0
  2  3  1  0  0  0  0
  3  4  1  0  0  0  0
  4  5  2  0  0  0  0
  4  6  1  0  0  0  0
  6  7  1  0  0  0  0
  7  8  1  0  0  0  0
  8  9  1  0  0  0  0
  9 10  1  0  0  0  0
 10 11  1  0  0  0  0
  6 11  1  0  0  0  0
 10 12  1  0  0  0  0
 12 13  1  0  0  0  0
 12 14  1  0  0  0  0
  6 15  1  0  0  0  0
 15 16  2  0  0  0  0
 15 17  1  0  0  0  0
 17 18  2  0  0  0  0
 18 19  1  0  0  0  0
 19 20  1  0  0  0  0
 20 21  2  0  0  0  0
 20 22  1  0  0  0  0
 17 22  1  0  0  0  0
 22 23  1  0  0  0  0
 23 24  1  0  0  0  0
 24 25  2  0  0  0  0
 25 26  1  0  0  0  0
 26 27  2  0  0  0  0
 27 28  1  0  0  0  0
 28 29  2  0  0  0  0
 24 29  1  0  0  0  0
M  END
> <ID>
CPD_3422

$$$$
CPD_3427
  Mrv1822 09091914012D          

 23 24  0  0  0  0            999 V2000
    1.7451    2.1327    0.0000 C   0  0  0  0  0  0  0  0  0  0  0  0
    1.4630    1.3575    0.0000 C   0  0  0  0  0  0  0  0  0  0  0  0
    1.9933    0.7255    0.0000 O   0  0  0  0  0  0  0  0  0  0  0  0
    1.7111   -0.0498    0.0000 C   0  0  0  0  0  0  0  0  0  0  0  0
    0.8986   -0.1930    0.0000 O   0  0  0  0  0  0  0  0  0  0  0  0
    2.2414   -0.6817    0.0000 C   0  0  0  0  0  0  0  0  0  0  0  0
    2.9559   -1.0942    0.0000 C   0  0  0  0  0  0  0  0  0  0  0  0
    2.9559   -1.9192    0.0000 C   0  0  0  0  0  0  0  0  0  0  0  0
    2.2414   -2.3317    0.0000 C   0  0  0  0  0  0  0  0  0  0  0  0
    1.5269   -1.9192    0.0000 N   0  0  0  0  0  0  0  0  0  0  0  0
    1.5269   -1.0942    0.0000 C   0  0  0  0  0  0  0  0  0  0  0  0
    0.8125   -2.3317    0.0000 C   0  0  0  0  0  0  0  0  0  0  0  0
    0.0980   -1.9192    0.0000 C   0  0  0  0  0  0  0  0  0  0  0  0
    0.8125   -3.1567    0.0000 C   0  0  0  0  0  0  0  0  0  0  0  0
    2.7717   -0.0498    0.0000 C   0  0  0  0  0  0  0  0  0  0  0  0
    2.4895    0.7255    0.0000 O   0  0  0  0  0  0  0  0  0  0  0  0
    3.5842   -0.1930    0.0000 C   0  0  0  0  0  0  0  0  0  0  0  0
    4.1145    0.4390    0.0000 C   0  0  0  0  0  0  0  0  0  0  0  0
    4.9269    0.2957    0.0000 C   0  0  0  0  0  0  0  0  0  0  0  0
    5.2091   -0.4795    0.0000 C   0  0  0  0  0  0  0  0  0  0  0  0
    6.0216   -0.6228    0.0000 F   0  0  0  0  0  0  0  0  0  0  0  0
    4.6788   -1.1115    0.0000 C   0  0  0  0  0  0  0  0  0  0  0  0
    3.8663   -0.9683    0.0000 C   0  0  0  0  0  0  0  0  0  0  0  0
  1  2  1  0  0  0  0
  2  3  1  0  0  0  0
  3  4  1  0  0  0  0
  4  5  2  0  0  0  0
  4  6  1  0  0  0  0
  6  7  1  0  0  0  0
  7  8  1  0  0  0  0
  8  9  1  0  0  0  0
  9 10  1  0  0  0  0
 10 11  1  0  0  0  0
  6 11  1  0  0  0  0
 10 12  1  0  0  0  0
 12 13  1  0  0  0  0
 12 14  1  0  0  0  0
  6 15  1  0  0  0  0
 15 16  2  0  0  0  0
 15 17  1  0  0  0  0
 17 18  2  0  0  0  0
 18 19  1  0  0  0  0
 19 20  2  0  0  0  0
 20 21  1  0  0  0  0
 20 22  1  0  0  0  0
 22 23  2  0  0  0  0
 17 23  1  0  0  0  0
M  END
> <ID>
CPD_3427

$$$$
CPD_3432
  Mrv1822 09091914012D          

 28 30  0  0  0  0            999 V2000
    2.2754    2.3257    0.0000 C   0  0  0  0  0  0  0  0  0  0  0  0
    1.9933    1.5505    0.0000 C   0  0  0  0  0  0  0  0  0  0  0  0
    1.1808    1.4072    0.0000 O   0  0  0  0  0  0  0  0  0  0  0  0
    0.8986    0.6320    0.0000 C   0  0  0  0  0  0  0  0  0  0  0  0
    0.0862    0.4887    0.0000 O   0  0  0  0  0  0  0  0  0  0  0  0
    1.4289   -0.0000    0.0000 C   0  0  0  0  0  0  0  0  0  0  0  0
    1.7111   -0.7752    0.0000 C   0  0  0  0  0  0  0  0  0  0  0  0
    2.5236   -0.9185    0.0000 C   0  0  0  0  0  0  0  0  0  0  0  0
    3.0539   -0.2865    0.0000 C   0  0  0  0  0  0  0  0  0  0  0  0
    2.7717    0.4887    0.0000 N   0  0  0  0  0  0  0  0  0  0  0  0
    1.9592    0.6320    0.0000 C   0  0  0  0  0  0  0  0  0  0  0  0
    3.3020    1.1207    0.0000 C   0  0  0  0  0  0  0  0  0  0  0  0
    4.1145    0.9775    0.0000 C   0  0  0  0  0  0  0  0  0  0  0  0
    3.0198    1.8960    0.0000 C   0  0  0  0  0  0  0  0  0  0  0  0
    0.7145   -0.4125    0.0000 C   0  0  0  0  0  0  0  0  0  0  0  0
    0.0000    0.0000    0.0000 O   0  0  0  0  0  0  0  0  0  0  0  0
    0.7145   -1.2375    0.0000 C   0  0  0  0  0  0  0  0  0  0  0  0
    1.3819   -1.7224    0.0000 C   0  0  0  0  0  0  0  0  0  0  0  0
    1.1270   -2.5070    0.0000 O   0  0  0  0  0  0  0  0  0  0  0  0
    0.3020   -2.5070    0.0000 C   0  0  0  0  0  0  0  0  0  0  0  0
    0.0470   -1.7224    0.0000 N   0  0  0  0  0  0  0  0  0  0  0  0
   -0.1830   -3.1745    0.0000 C   0  0  0  0  0  0  0  0  0  0  0  0
    0.1526   -3.9282    0.0000 C   0  0  0  0  0  0  0  0  0  0  0  0
   -0.3323   -4.5956    0.0000 C   0  0  0  0  0  0  0  0  0  0  0  0
   -1.1528   -4.5094    0.0000 C   0  0  0  0  0  0  0  0  0  0  0  0
   -1.6377   -5.1768    0.0000 O   0  0  0  0  0  0  0  0  0  0  0  0
   -1.4884   -3.7557    0.0000 C   0  0  0  0  0  0  0  0  0  0  0  0
   -1.0034   -3.0882    0.0000 C   0  0  0  0  0  0  0  0  0  0  0  0
  1  2  1  0  0  0  0
  2  3  1  0  0  0  0
  3  4  1  0  0  0  0
  4  5  2  0  0  0  0
  4  6  1  0  0  0  0
  6  7  1  0  0  0  0
  7  8  1  0  0  0  0
  8  9  1  0  0  0  0
  9 10  1  0  0  0  0
 10 11  1  0  0  0  0
  6 11  1  0  0  0  0
 10 12  1  0  0  0  0
 12 13  1  0  0  0  0
 12 14  1  0  0  0  0
  6 15  1  0  0  0  0
 15 16  2  0  0  0  0
 15 17  1  0  0  0  0
 17 18  2  0  0  0  0
 18 19  1  0  0  0  0
 19 20  1  0  0  0  0
 20 21  2  0  0  0  0
 17 21  1  0  0  0  0
 20 22  1  0  0  0  0
 22 23  2  0  0  0  0
 23 24  1  0  0  0  0
 24 25  2  0  0  0  0
 25 26  1  0  0  0  0
 25 27  1  0  0  0  0
 27 28  2  0  0  0  0
 22 28  1  0  0  0  0
M  END
> <ID>
CPD_3432

$$$$
CPD_3437
  Mrv1822 09091914012D          

 34 37  0  0  0  0            999 V2000
    0.1904   -3.0504    0.0000 C   0  0  0  0  0  0  0  0  0  0  0  0
    0.7425   -2.4373    0.0000 O   0  0  0  0  0  0  0  0  0  0  0  0
    1.5494   -2.6088    0.0000 C   0  0  0  0  0  0  0  0  0  0  0  0
    2.1015   -1.9957    0.0000 C   0  0  0  0  0  0  0  0  0  0  0  0
    1.8465   -1.2111    0.0000 N   0  0  0  0  0  0  0  0  0  0  0  0
    1.0396   -1.0396    0.0000 C   0  0  0  0  0  0  0  0  0  0  0  0
    0.4875   -1.6527    0.0000 O   0  0  0  0  0  0  0  0  0  0  0  0
    0.7846   -0.2549    0.0000 C   0  0  0  0  0  0  0  0  0  0  0  0
    0.0000   -0.0000    0.0000 C   0  0  0  0  0  0  0  0  0  0  0  0
   -0.6674   -0.4849    0.0000 C   0  0  0  0  0  0  0  0  0  0  0  0
   -0.5812   -1.3054    0.0000 O   0  0  0  0  0  0  0  0  0  0  0  0
   -1.4211   -0.1494    0.0000 C   0  0  0  0  0  0  0  0  0  0  0  0
   -1.5074    0.6711    0.0000 C   0  0  0  0  0  0  0  0  0  0  0  0
   -2.2610    1.0067    0.0000 N   0  0  0  0  0  0  0  0  0  0  0  0
   -2.9285    0.5218    0.0000 C   0  0  0  0  0  0  0  0  0  0  0  0
   -3.6821    0.8573    0.0000 O   0  0  0  0  0  0  0  0  0  0  0  0
   -2.8422   -0.2987    0.0000 C   0  0  0  0  0  0  0  0  0  0  0  0
   -3.5097   -0.7837    0.0000 C   0  0  0  0  0  0  0  0  0  0  0  0
   -4.1771   -1.2686    0.0000 N   0  0  0  0  0  0  0  0  0  0  0  0
   -2.0886   -0.6343    0.0000 C   0  0  0  0  0  0  0  0  0  0  0  0
   -2.0023   -1.4548    0.0000 C   0  0  0  0  0  0  0  0  0  0  0  0
   -0.0000    0.8250    0.0000 C   0  0  0  0  0  0  0  0  0  0  0  0
   -0.6674    1.3099    0.0000 O   0  0  0  0  0  0  0  0  0  0  0  0
    0.7846    1.0799    0.0000 O   0  0  0  0  0  0  0  0  0  0  0  0
    1.2695    0.4125    0.0000 C   0  0  0  0  0  0  0  0  0  0  0  0
    1.6820    1.1270    0.0000 C   0  0  0  0  0  0  0  0  0  0  0  0
    2.5070    1.1270    0.0000 C   0  0  0  0  0  0  0  0  0  0  0  0
    2.9195    0.4125    0.0000 C   0  0  0  0  0  0  0  0  0  0  0  0
    2.5070   -0.3020    0.0000 C   0  0  0  0  0  0  0  0  0  0  0  0
    1.6820   -0.3020    0.0000 C   0  0  0  0  0  0  0  0  0  0  0  0
    2.9084   -2.1672    0.0000 C   0  0  0  0  0  0  0  0  0  0  0  0
    3.1634   -2.9519    0.0000 C   0  0  0  0  0  0  0  0  0  0  0  0
    2.6113   -3.5650    0.0000 C   0  0  0  0  0  0  0  0  0  0  0  0
    1.8044   -3.3934    0.0000 C   0  0  0  0  0  0  0  0  0  0  0  0
  1  2  1  0  0  0  0
  2  3  1  0  0  0  0
  3  4  2  0  0  0  0
  4  5  1  0  0  0  0
  5  6  1  0  0  0  0
  6  7  2  0  0  0  0
  6  8  1  0  0  0  0
  8  9  1  0  0  0  0
  9 10  1  0  0  0  0
 10 11  2  0  0  0  0
 10 12  1  0  0  0  0
 12 13  2  0  0  0  0
 13 14  1  0  0  0  0
 14 15  2  0  0  0  0
 15 16  1  0  0  0  0
 15 17  1  0  0  0  0
 17 18  1  0  0  0  0
 18 19  3  0  0  0  0
 17 20  2  0  0  0  0
 12 20  1  0  0  0  0
 20 21  1  0  0  0  0
  9 22  1  0  0  0  0
 22 23  2  0  0  0  0
 22 24  1  0  0  0  0
 24 25  1  0  0  0  0
  8 25  1  0  0  0  0
 25 26  1  0  0  0  0
 26 27  1  0  0  0  0
 27 28  1  0  0  0  0
 28 29  1  0  0  0  0
 29 30  1  0  0  0  0
 25 30  1  0  0  0  0
  4 31  1  0  0  0  0
 31 32  2  0  0  0  0
 32 33  1  0  0  0  0
 33 34  2  0  0  0  0
  3 34  1  0  0  0  0
M  END
> <ID>
CPD_3437

$$$$
CPD_3442
  Mrv1822 09091914012D          

 31 34  0  0  1  0            999 V2000
    0.1904   -3.0504    0.0000 C   0  0  0  0  0  0  0  0  0  0  0  0
    0.7425   -2.4373    0.0000 O   0  0  0  0  0  0  0  0  0  0  0  0
    1.5494   -2.6088    0.0000 C   0  0  0  0  0  0  0  0  0  0  0  0
    2.1015   -1.9957    0.0000 C   0  0  0  0  0  0  0  0  0  0  0  0
    1.8465   -1.2111    0.0000 N   0  0  0  0  0  0  0  0  0  0  0  0
    1.0396   -1.0396    0.0000 C   0  0  0  0  0  0  0  0  0  0  0  0
    0.4875   -1.6527    0.0000 O   0  0  0  0  0  0  0  0  0  0  0  0
    0.7846   -0.2549    0.0000 C   0  0  0  0  0  0  0  0  0  0  0  0
    0.0000   -0.0000    0.0000 C   0  0  0  0  0  0  0  0  0  0  0  0
   -0.6674   -0.4849    0.0000 C   0  0  0  0  0  0  0  0  0  0  0  0
   -0.5812   -1.3054    0.0000 O   0  0  0  0  0  0  0  0  0  0  0  0
   -1.4211   -0.1494    0.0000 C   0  0  0  0  0  0  0  0  0  0  0  0
   -2.0886   -0.6343    0.0000 C   0  0  1  0  0  0  0  0  0  0  0  0
   -2.8422   -0.2987    0.0000 C   0  0  0  0  0  0  0  0  0  0  0  0
   -3.5097   -0.7837    0.0000 C   0  0  0  0  0  0  0  0  0  0  0  0
   -3.4234   -1.6041    0.0000 C   0  0  0  0  0  0  0  0  0  0  0  0
   -2.6698   -1.9397    0.0000 N   0  0  0  0  0  0  0  0  0  0  0  0
   -2.0023   -1.4548    0.0000 C   0  0  0  0  0  0  0  0  0  0  0  0
   -0.0000    0.8250    0.0000 C   0  0  0  0  0  0  0  0  0  0  0  0
   -0.6674    1.3099    0.0000 O   0  0  0  0  0  0  0  0  0  0  0  0
    0.7846    1.0799    0.0000 O   0  0  0  0  0  0  0  0  0  0  0  0
    1.2695    0.4125    0.0000 C   0  0  0  0  0  0  0  0  0  0  0  0
    1.6820    1.1270    0.0000 C   0  0  0  0  0  0  0  0  0  0  0  0
    2.5070    1.1270    0.0000 C   0  0  0  0  0  0  0  0  0  0  0  0
    2.9195    0.4125    0.0000 C   0  0  0  0  0  0  0  0  0  0  0  0
    2.5070   -0.3020    0.0000 C   0  0  0  0  0  0  0  0  0  0  0  0
    1.6820   -0.3020    0.0000 C   0  0  0  0  0  0  0  0  0  0  0  0
    2.9084   -2.1672    0.0000 C   0  0  0  0  0  0  0  0  0  0  0  0
    3.1634   -2.9519    0.0000 C   0  0  0  0  0  0  0  0  0  0  0  0
    2.6113   -3.5650    0.0000 C   0  0  0  0  0  0  0  0  0  0  0  0
    1.8044   -3.3934    0.0000 C   0  0  0  0  0  0  0  0  0  0  0  0
  1  2  1  0  0  0  0
  2  3  1  0  0  0  0
  3  4  2  0  0  0  0
  4  5  1  0  0  0  0
  5  6  1  0  0  0  0
  6  7  2  0  0  0  0
  6  8  1  0  0  0  0
  8  9  1  0  0  0  0
  9 10  1  0  0  0  0
 10 11  2  0  0  0  0
 10 12  1  0  0  0  0
 13 12  1  6  0  0  0
 13 14  1  0  0  0  0
 14 15  1  0  0  0  0
 15 16  1  0  0  0  0
 16 17  1  0  0  0  0
 17 18  1  0  0  0  0
 13 18  1  0  0  0  0
  9 19  1  0  0  0  0
 19 20  2  0  0  0  0
 19 21  1  0  0  0  0
 21 22  1  0  0  0  0
  8 22  1  0  0  0  0
 22 23  1  0  0  0  0
 23 24  1  0  0  0  0
 24 25  1  0  0  0  0
 25 26  1  0  0  0  0
 26 27  1  0  0  0  0
 22 27  1  0  0  0  0
  4 28  1  0  0  0  0
 28 29  2  0  0  0  0
 29 30  1  0  0  0  0
 30 31  2  0  0  0  0
  3 31  1  0  0  0  0
M  END
> <ID>
CPD_3442

$$$$
CPD_3447
  Mrv1822 09091914012D          

 34 37  0  0  0  0            999 V2000
    0.1904   -3.0504    0.0000 C   0  0  0  0  0  0  0  0  0  0  0  0
    0.7425   -2.4373    0.0000 O   0  0  0  0  0  0  0  0  0  0  0  0
    1.5494   -2.6088    0.0000 C   0  0  0  0  0  0  0  0  0  0  0  0
    2.1015   -1.9957    0.0000 C   0  0  0  0  0  0  0  0  0  0  0  0
    1.8465   -1.2111    0.0000 N   0  0  0  0  0  0  0  0  0  0  0  0
    1.0396   -1.0396    0.0000 C   0  0  0  0  0  0  0  0  0  0  0  0
    0.4875   -1.6527    0.0000 O   0  0  0  0  0  0  0  0  0  0  0  0
    0.7846   -0.2549    0.0000 C   0  0  0  0  0  0  0  0  0  0  0  0
    0.0000   -0.0000    0.0000 C   0  0  0  0  0  0  0  0  0  0  0  0
   -0.6674   -0.4849    0.0000 C   0  0  0  0  0  0  0  0  0  0  0  0
   -0.5812   -1.3054    0.0000 O   0  0  0  0  0  0  0  0  0  0  0  0
   -1.4211   -0.1494    0.0000 C   0  0  0  0  0  0  0  0  0  0  0  0
   -2.0886   -0.6343    0.0000 C   0  0  0  0  0  0  0  0  0  0  0  0
   -2.8422   -0.2987    0.0000 C   0  0  0  0  0  0  0  0  0  0  0  0
   -2.9285    0.5218    0.0000 C   0  0  0  0  0  0  0  0  0  0  0  0
   -2.2610    1.0067    0.0000 C   0  0  0  0  0  0  0  0  0  0  0  0
   -1.5074    0.6711    0.0000 C   0  0  0  0  0  0  0  0  0  0  0  0
   -3.6821    0.8573    0.0000 C   0  0  0  0  0  0  0  0  0  0  0  0
   -4.4358    1.1929    0.0000 C   0  0  0  0  0  0  0  0  0  0  0  0
   -3.3466    1.6110    0.0000 C   0  0  0  0  0  0  0  0  0  0  0  0
   -4.0177    0.1036    0.0000 C   0  0  0  0  0  0  0  0  0  0  0  0
   -0.0000    0.8250    0.0000 C   0  0  0  0  0  0  0  0  0  0  0  0
   -0.6674    1.3099    0.0000 O   0  0  0  0  0  0  0  0  0  0  0  0
    0.7846    1.0799    0.0000 O   0  0  0  0  0  0  0  0  0  0  0  0
    1.2695    0.4125    0.0000 C   0  0  0  0  0  0  0  0  0  0  0  0
    1.6820    1.1270    0.0000 C   0  0  0  0  0  0  0  0  0  0  0  0
    2.5070    1.1270    0.0000 C   0  0  0  0  0  0  0  0  0  0  0  0
    2.9195    0.4125    0.0000 C   0  0  0  0  0  0  0  0  0  0  0  0
    2.5070   -0.3020    0.0000 C   0  0  0  0  0  0  0  0  0  0  0  0
    1.6820   -0.3020    0.0000 C   0  0  0  0  0  0  0  0  0  0  0  0
    2.9084   -2.1672    0.0000 C   0  0  0  0  0  0  0  0  0  0  0  0
    3.1634   -2.9519    0.0000 C   0  0  0  0  0  0  0  0  0  0  0  0
    2.6113   -3.5650    0.0000 C   0  0  0  0  0  0  0  0  0  0  0  0
    1.8044   -3.3934    0.0000 C   0  0  0  0  0  0  0  0  0  0  0  0
  1  2  1  0  0  0  0
  2  3  1  0  0  0  0
  3  4  2  0  0  0  0
  4  5  1  0  0  0  0
  5  6  1  0  0  0  0
  6  7  2  0  0  0  0
  6  8  1  0  0  0  0
  8  9  1  0  0  0  0
  9 10  1  0  0  0  0
 10 11  2  0  0  0  0
 10 12  1  0  0  0  0
 12 13  2  0  0  0  0
 13 14  1  0  0  0  0
 14 15  2  0  0  0  0
 15 16  1  0  0  0  0
 16 17  2  0  0  0  0
 12 17  1  0  0  0  0
 15 18  1  0  0  0  0
 18 19  1  0  0  0  0
 18 20  1  0  0  0  0
 18 21  1  0  0  0  0
  9 22  1  0  0  0  0
 22 23  2  0  0  0  0
 22 24  1  0  0  0  0
 24 25  1  0  0  0  0
  8 25  1  0  0  0  0
 25 26  1  0  0  0  0
 26 27  1  0  0  0  0
 27 28  1  0  0  0  0
 28 29  1  0  0  0  0
 29 30  1  0  0  0  0
 25 30  1  0  0  0  0
  4 31  1  0  0  0  0
 31 32  2  0  0  0  0
 32 33  1  0  0  0  0
 33 34  2  0  0  0  0
  3 34  1  0  0  0  0
M  END
> <ID>
CPD_3447

$$$$
CPD_3452
  Mrv1822 09091914012D          

 33 35  0  0  0  0            999 V2000
    3.0789   -3.6829    0.0000 C   0  0  0  0  0  0  0  0  0  0  0  0
    3.7934   -4.0954    0.0000 O   0  0  0  0  0  0  0  0  0  0  0  0
    3.7934   -4.9204    0.0000 C   0  0  0  0  0  0  0  0  0  0  0  0
    4.5079   -5.3329    0.0000 C   0  0  0  0  0  0  0  0  0  0  0  0
    5.2224   -4.9204    0.0000 C   0  0  0  0  0  0  0  0  0  0  0  0
    4.5079   -6.1579    0.0000 C   0  0  0  0  0  0  0  0  0  0  0  0
    3.7934   -6.5704    0.0000 C   0  0  0  0  0  0  0  0  0  0  0  0
    3.7934   -7.3954    0.0000 C   0  0  0  0  0  0  0  0  0  0  0  0
    4.5079   -7.8079    0.0000 C   0  0  0  0  0  0  0  0  0  0  0  0
    4.5079   -8.6329    0.0000 C   0  0  0  0  0  0  0  0  0  0  0  0
    5.2224   -9.0454    0.0000 O   0  0  0  0  0  0  0  0  0  0  0  0
    3.7934   -9.0454    0.0000 C   0  0  0  0  0  0  0  0  0  0  0  0
    3.3809   -8.3309    0.0000 N   0  0  0  0  0  0  0  0  0  0  0  0
    3.0789   -9.4579    0.0000 C   0  0  0  0  0  0  0  0  0  0  0  0
    2.3645   -9.0454    0.0000 C   0  0  0  0  0  0  0  0  0  0  0  0
    1.6500   -9.4579    0.0000 C   0  0  0  0  0  0  0  0  0  0  0  0
    0.9355   -9.0454    0.0000 C   0  0  0  0  0  0  0  0  0  0  0  0
    0.9355   -8.2204    0.0000 C   0  0  0  0  0  0  0  0  0  0  0  0
    0.2211   -7.8079    0.0000 F   0  0  0  0  0  0  0  0  0  0  0  0
    1.6500   -7.8079    0.0000 C   0  0  0  0  0  0  0  0  0  0  0  0
    2.3645   -8.2204    0.0000 C   0  0  0  0  0  0  0  0  0  0  0  0
    4.2059   -9.7599    0.0000 C   0  0  0  0  0  0  0  0  0  0  0  0
    5.0309   -9.7599    0.0000 O   0  0  0  0  0  0  0  0  0  0  0  0
    3.7934  -10.4743    0.0000 O   0  0  0  0  0  0  0  0  0  0  0  0
    4.2059  -11.1888    0.0000 C   0  0  0  0  0  0  0  0  0  0  0  0
    3.7934  -11.9033    0.0000 C   0  0  0  0  0  0  0  0  0  0  0  0
    4.2059  -12.6177    0.0000 C   0  0  0  0  0  0  0  0  0  0  0  0
    3.7934  -13.3322    0.0000 C   0  0  0  0  0  0  0  0  0  0  0  0
    2.9684  -13.3322    0.0000 C   0  0  0  0  0  0  0  0  0  0  0  0
    2.5559  -12.6177    0.0000 C   0  0  0  0  0  0  0  0  0  0  0  0
    2.9684  -11.9033    0.0000 C   0  0  0  0  0  0  0  0  0  0  0  0
    3.0789   -6.1579    0.0000 C   0  0  0  0  0  0  0  0  0  0  0  0
    3.0789   -5.3329    0.0000 C   0  0  0  0  0  0  0  0  0  0  0  0
  1  2  1  0  0  0  0
  2  3  1  0  0  0  0
  3  4  2  0  0  0  0
  4  5  1  0  0  0  0
  4  6  1  0  0  0  0
  6  7  2  0  0  0  0
  7  8  1  0  0  0  0
  8  9  1  0  0  0  0
  9 10  1  0  0  0  0
 10 11  2  0  0  0  0
 10 12  1  0  0  0  0
 12 13  1  0  0  0  0
 12 14  1  0  0  0  0
 14 15  1  0  0  0  0
 15 16  2  0  0  0  0
 16 17  1  0  0  0  0
 17 18  2  0  0  0  0
 18 19  1  0  0  0  0
 18 20  1  0  0  0  0
 20 21  2  0  0  0  0
 15 21  1  0  0  0  0
 12 22  1  0  0  0  0
 22 23  2  0  0  0  0
 22 24  1  0  0  0  0
 24 25  1  0  0  0  0
 25 26  1  0  0  0  0
 26 27  2  0  0  0  0
 27 28  1  0  0  0  0
 28 29  2  0  0  0  0
 29 30  1  0  0  0  0
 30 31  2  0  0  0  0
 26 31  1  0  0  0  0
  7 32  1  0  0  0  0
 32 33  2  0  0  0  0
  3 33  1  0  0  0  0
M  END
> <ID>
CPD_3452

$$$$
CPD_3457
  Mrv1822 09091914012D          

 31 34  0  0  0  0            999 V2000
    4.4059    1.7605    0.0000 N   0  0  0  0  0  0  0  0  0  0  0  0
    3.9934    2.4750    0.0000 C   0  0  0  0  0  0  0  0  0  0  0  0
    4.7079    2.8875    0.0000 C   0  0  0  0  0  0  0  0  0  0  0  0
    5.4223    2.4750    0.0000 C   0  0  0  0  0  0  0  0  0  0  0  0
    6.1368    2.8875    0.0000 C   0  0  0  0  0  0  0  0  0  0  0  0
    6.8513    2.4750    0.0000 C   0  0  0  0  0  0  0  0  0  0  0  0
    6.8513    1.6500    0.0000 C   0  0  0  0  0  0  0  0  0  0  0  0
    7.5658    1.2375    0.0000 F   0  0  0  0  0  0  0  0  0  0  0  0
    6.1368    1.2375    0.0000 C   0  0  0  0  0  0  0  0  0  0  0  0
    5.4223    1.6500    0.0000 C   0  0  0  0  0  0  0  0  0  0  0  0
    3.5809    3.1895    0.0000 C   0  0  0  0  0  0  0  0  0  0  0  0
    3.9934    3.9039    0.0000 O   0  0  0  0  0  0  0  0  0  0  0  0
    2.7559    3.1895    0.0000 O   0  0  0  0  0  0  0  0  0  0  0  0
    2.3434    3.9039    0.0000 C   0  0  0  0  0  0  0  0  0  0  0  0
    2.7559    4.6184    0.0000 C   0  0  0  0  0  0  0  0  0  0  0  0
    2.3434    5.3329    0.0000 C   0  0  0  0  0  0  0  0  0  0  0  0
    2.7559    6.0474    0.0000 C   0  0  0  0  0  0  0  0  0  0  0  0
    3.5809    6.0474    0.0000 C   0  0  0  0  0  0  0  0  0  0  0  0
    3.9934    5.3329    0.0000 C   0  0  0  0  0  0  0  0  0  0  0  0
    3.5809    4.6184    0.0000 C   0  0  0  0  0  0  0  0  0  0  0  0
    3.2789    2.0625    0.0000 C   0  0  0  0  0  0  0  0  0  0  0  0
    2.5645    2.4750    0.0000 O   0  0  0  0  0  0  0  0  0  0  0  0
    3.2789    1.2375    0.0000 C   0  0  0  0  0  0  0  0  0  0  0  0
    3.9934    0.8250    0.0000 C   0  0  0  0  0  0  0  0  0  0  0  0
    3.9934    0.0000    0.0000 C   0  0  0  0  0  0  0  0  0  0  0  0
    3.2789   -0.4125    0.0000 C   0  0  0  0  0  0  0  0  0  0  0  0
    2.5645    0.0000    0.0000 N   0  0  0  0  0  0  0  0  0  0  0  0
    1.7798   -0.2549    0.0000 C   0  0  0  0  0  0  0  0  0  0  0  0
    1.2949    0.4125    0.0000 N   0  0  0  0  0  0  0  0  0  0  0  0
    1.7798    1.0799    0.0000 C   0  0  0  0  0  0  0  0  0  0  0  0
    2.5645    0.8250    0.0000 C   0  0  0  0  0  0  0  0  0  0  0  0
  1  2  1  0  0  0  0
  2  3  1  0  0  0  0
  3  4  1  0  0  0  0
  4  5  2  0  0  0  0
  5  6  1  0  0  0  0
  6  7  2  0  0  0  0
  7  8  1  0  0  0  0
  7  9  1  0  0  0  0
  9 10  2  0  0  0  0
  4 10  1  0  0  0  0
  2 11  1  0  0  0  0
 11 12  2  0  0  0  0
 11 13  1  0  0  0  0
 13 14  1  0  0  0  0
 14 15  1  0  0  0  0
 15 16  2  0  0  0  0
 16 17  1  0  0  0  0
 17 18  2  0  0  0  0
 18 19  1  0  0  0  0
 19 20  2  0  0  0  0
 15 20  1  0  0  0  0
  2 21  1  0  0  0  0
 21 22  2  0  0  0  0
 21 23  1  0  0  0  0
 23 24  2  0  0  0  0
 24 25  1  0  0  0  0
 25 26  2  0  0  0  0
 26 27  1  0  0  0  0
 27 28  1  0  0  0  0
 28 29  2  0  0  0  0
 29 30  1  0  0  0  0
 30 31  2  0  0  0  0
 23 31  1  0  0  0  0
 27 31  1  0  0  0  0
M  END
> <ID>
CPD_3457

$$$$
CPD_3462
  Mrv1822 09091914012D          

 31 35  0  0  0  0            999 V2000
    1.7666   -3.8939    0.0000 C   0  0  0  0  0  0  0  0  0  0  0  0
    1.9381   -3.0870    0.0000 O   0  0  0  0  0  0  0  0  0  0  0  0
    2.7228   -2.8320    0.0000 C   0  0  0  0  0  0  0  0  0  0  0  0
    2.8943   -2.0251    0.0000 C   0  0  0  0  0  0  0  0  0  0  0  0
    3.6789   -1.7701    0.0000 C   0  0  0  0  0  0  0  0  0  0  0  0
    4.2920   -2.3221    0.0000 C   0  0  0  0  0  0  0  0  0  0  0  0
    5.0065   -1.9096    0.0000 S   0  0  0  0  0  0  0  0  0  0  0  0
    4.8350   -1.1027    0.0000 C   0  0  0  0  0  0  0  0  0  0  0  0
    4.0145   -1.0164    0.0000 C   0  0  0  0  0  0  0  0  0  0  0  0
    3.6020   -0.3020    0.0000 C   0  0  0  0  0  0  0  0  0  0  0  0
    2.7770   -0.3020    0.0000 C   0  0  0  0  0  0  0  0  0  0  0  0
    2.3645    0.4125    0.0000 C   0  0  0  0  0  0  0  0  0  0  0  0
    2.7770    1.1270    0.0000 C   0  0  0  0  0  0  0  0  0  0  0  0
    3.6020    1.1270    0.0000 C   0  0  0  0  0  0  0  0  0  0  0  0
    4.0145    0.4125    0.0000 C   0  0  0  0  0  0  0  0  0  0  0  0
    2.3645    1.8414    0.0000 N   0  0  0  0  0  0  0  0  0  0  0  0
    2.7770    2.5559    0.0000 C   0  0  0  0  0  0  0  0  0  0  0  0
    3.6020    2.5559    0.0000 C   0  0  0  0  0  0  0  0  0  0  0  0
    4.0145    3.2704    0.0000 O   0  0  0  0  0  0  0  0  0  0  0  0
    4.0145    1.8414    0.0000 O   0  0  0  0  0  0  0  0  0  0  0  0
    1.5395    1.8414    0.0000 S   0  0  0  0  0  0  0  0  0  0  0  0
    1.6827    2.6539    0.0000 O   0  0  0  0  0  0  0  0  0  0  0  0
    0.7642    2.1236    0.0000 O   0  0  0  0  0  0  0  0  0  0  0  0
    1.1270    1.1270    0.0000 C   0  0  0  0  0  0  0  0  0  0  0  0
    1.5395    0.4125    0.0000 C   0  0  0  0  0  0  0  0  0  0  0  0
    1.1270   -0.3020    0.0000 C   0  0  0  0  0  0  0  0  0  0  0  0
    0.3020   -0.3020    0.0000 C   0  0  0  0  0  0  0  0  0  0  0  0
   -0.1105    0.4125    0.0000 C   0  0  0  0  0  0  0  0  0  0  0  0
    0.3020    1.1270    0.0000 C   0  0  0  0  0  0  0  0  0  0  0  0
    4.1205   -3.1291    0.0000 C   0  0  0  0  0  0  0  0  0  0  0  0
    3.3359   -3.3841    0.0000 C   0  0  0  0  0  0  0  0  0  0  0  0
  1  2  1  0  0  0  0
  2  3  1  0  0  0  0
  3  4  2  0  0  0  0
  4  5  1  0  0  0  0
  5  6  2  0  0  0  0
  6  7  1  0  0  0  0
  7  8  1  0  0  0  0
  8  9  2  0  0  0  0
  5  9  1  0  0  0  0
  9 10  1  0  0  0  0
 10 11  2  0  0  0  0
 11 12  1  0  0  0  0
 12 13  2  0  0  0  0
 13 14  1  0  0  0  0
 14 15  2  0  0  0  0
 10 15  1  0  0  0  0
 13 16  1  0  0  0  0
 16 17  1  0  0  0  0
 17 18  1  0  0  0  0
 18 19  1  0  0  0  0
 18 20  2  0  0  0  0
 16 21  1  0  0  0  0
 21 22  2  0  0  0  0
 21 23  2  0  0  0  0
 21 24  1  0  0  0  0
 24 25  2  0  0  0  0
 12 25  1  0  0  0  0
 25 26  1  0  0  0  0
 26 27  2  0  0  0  0
 27 28  1  0  0  0  0
 28 29  2  0  0  0  0
 24 29  1  0  0  0  0
  6 30  1  0  0  0  0
 30 31  2  0  0  0  0
  3 31  1  0  0  0  0
M  END
> <ID>
CPD_3462

$$$$
CPD_3467
  Mrv1822 09091914012D          

 31 34  0  0  0  0            999 V2000
    1.3307    6.3733    0.0000 C   0  0  0  0  0  0  0  0  0  0  0  0
    1.9438    5.8213    0.0000 O   0  0  0  0  0  0  0  0  0  0  0  0
    1.7722    5.0143    0.0000 C   0  0  0  0  0  0  0  0  0  0  0  0
    2.3853    4.4623    0.0000 C   0  0  0  0  0  0  0  0  0  0  0  0
    2.2138    3.6553    0.0000 C   0  0  0  0  0  0  0  0  0  0  0  0
    1.4292    3.4004    0.0000 C   0  0  0  0  0  0  0  0  0  0  0  0
    0.8161    3.9524    0.0000 C   0  0  0  0  0  0  0  0  0  0  0  0
    0.9876    4.7594    0.0000 C   0  0  0  0  0  0  0  0  0  0  0  0
    1.2577    2.5934    0.0000 S   0  0  0  0  0  0  0  0  0  0  0  0
    1.0861    1.7864    0.0000 O   0  0  0  0  0  0  0  0  0  0  0  0
    2.0646    2.4219    0.0000 O   0  0  0  0  0  0  0  0  0  0  0  0
    0.4507    2.7649    0.0000 N   0  0  0  0  0  0  0  0  0  0  0  0
   -0.1014    2.1518    0.0000 C   0  0  0  0  0  0  0  0  0  0  0  0
    0.1536    1.3672    0.0000 C   0  0  0  0  0  0  0  0  0  0  0  0
   -0.3984    0.7541    0.0000 C   0  0  0  0  0  0  0  0  0  0  0  0
   -1.2054    0.9256    0.0000 C   0  0  0  0  0  0  0  0  0  0  0  0
   -1.4604    1.7103    0.0000 C   0  0  0  0  0  0  0  0  0  0  0  0
   -0.9083    2.3234    0.0000 C   0  0  0  0  0  0  0  0  0  0  0  0
   -1.1633    3.1080    0.0000 O   0  0  0  0  0  0  0  0  0  0  0  0
   -0.6112    3.7211    0.0000 C   0  0  0  0  0  0  0  0  0  0  0  0
   -0.1435   -0.0305    0.0000 C   0  0  0  0  0  0  0  0  0  0  0  0
   -0.6284   -0.6979    0.0000 C   0  0  0  0  0  0  0  0  0  0  0  0
   -0.1435   -1.3654    0.0000 S   0  0  0  0  0  0  0  0  0  0  0  0
    0.6411   -1.1104    0.0000 C   0  0  0  0  0  0  0  0  0  0  0  0
    0.6411   -0.2854    0.0000 C   0  0  0  0  0  0  0  0  0  0  0  0
    1.3556    0.1271    0.0000 C   0  0  0  0  0  0  0  0  0  0  0  0
    2.0701   -0.2854    0.0000 C   0  0  0  0  0  0  0  0  0  0  0  0
    2.7845    0.1271    0.0000 O   0  0  0  0  0  0  0  0  0  0  0  0
    2.7845    0.9521    0.0000 C   0  0  0  0  0  0  0  0  0  0  0  0
    2.0701   -1.1104    0.0000 C   0  0  0  0  0  0  0  0  0  0  0  0
    1.3556   -1.5229    0.0000 C   0  0  0  0  0  0  0  0  0  0  0  0
  1  2  1  0  0  0  0
  2  3  1  0  0  0  0
  3  4  2  0  0  0  0
  4  5  1  0  0  0  0
  5  6  2  0  0  0  0
  6  7  1  0  0  0  0
  7  8  2  0  0  0  0
  3  8  1  0  0  0  0
  6  9  1  0  0  0  0
  9 10  2  0  0  0  0
  9 11  2  0  0  0  0
  9 12  1  0  0  0  0
 12 13  1  0  0  0  0
 13 14  2  0  0  0  0
 14 15  1  0  0  0  0
 15 16  2  0  0  0  0
 16 17  1  0  0  0  0
 17 18  2  0  0  0  0
 13 18  1  0  0  0  0
 18 19  1  0  0  0  0
 19 20  1  0  0  0  0
 15 21  1  0  0  0  0
 21 22  2  0  0  0  0
 22 23  1  0  0  0  0
 23 24  1  0  0  0  0
 24 25  2  0  0  0  0
 21 25  1  0  0  0  0
 25 26  1  0  0  0  0
 26 27  2  0  0  0  0
 27 28  1  0  0  0  0
 28 29  1  0  0  0  0
 27 30  1  0  0  0  0
 30 31  2  0  0  0  0
 24 31  1  0  0  0  0
M  END
> <ID>
CPD_3467

$$$$
CPD_3472
  Mrv1822 09091914012D          

 35 39  0  0  0  0            999 V2000
   -0.1756   -2.3048    0.0000 C   0  0  0  0  0  0  0  0  0  0  0  0
   -0.6102   -1.6035    0.0000 C   0  0  0  0  0  0  0  0  0  0  0  0
   -1.4348   -1.6293    0.0000 C   0  0  0  0  0  0  0  0  0  0  0  0
   -1.8248   -2.3563    0.0000 N   0  0  0  0  0  0  0  0  0  0  0  0
   -2.6494   -2.3821    0.0000 S   0  0  0  0  0  0  0  0  0  0  0  0
   -2.6237   -3.2067    0.0000 O   0  0  0  0  0  0  0  0  0  0  0  0
   -2.6752   -1.5575    0.0000 O   0  0  0  0  0  0  0  0  0  0  0  0
   -3.4740   -2.4078    0.0000 C   0  0  0  0  0  0  0  0  0  0  0  0
   -3.8640   -3.1348    0.0000 C   0  0  0  0  0  0  0  0  0  0  0  0
   -4.6886   -3.1606    0.0000 C   0  0  0  0  0  0  0  0  0  0  0  0
   -5.1232   -2.4593    0.0000 C   0  0  0  0  0  0  0  0  0  0  0  0
   -4.7332   -1.7323    0.0000 C   0  0  0  0  0  0  0  0  0  0  0  0
   -3.9086   -1.7066    0.0000 C   0  0  0  0  0  0  0  0  0  0  0  0
   -1.8694   -0.9281    0.0000 C   0  0  0  0  0  0  0  0  0  0  0  0
   -1.4795   -0.2010    0.0000 C   0  0  0  0  0  0  0  0  0  0  0  0
   -0.6549   -0.1753    0.0000 C   0  0  0  0  0  0  0  0  0  0  0  0
   -0.2203   -0.8765    0.0000 C   0  0  0  0  0  0  0  0  0  0  0  0
    0.6043   -0.8508    0.0000 C   0  0  0  0  0  0  0  0  0  0  0  0
    0.9943   -0.1238    0.0000 C   0  0  0  0  0  0  0  0  0  0  0  0
    1.8189   -0.0980    0.0000 C   0  0  0  0  0  0  0  0  0  0  0  0
    2.2535   -0.7992    0.0000 C   0  0  0  0  0  0  0  0  0  0  0  0
    3.0781   -0.7735    0.0000 N   0  0  0  0  0  0  0  0  0  0  0  0
    3.6108   -0.1434    0.0000 C   0  0  0  0  0  0  0  0  0  0  0  0
    4.3745   -0.4553    0.0000 C   0  0  0  0  0  0  0  0  0  0  0  0
    4.3140   -1.2781    0.0000 C   0  0  0  0  0  0  0  0  0  0  0  0
    3.5127   -1.4747    0.0000 C   0  0  0  0  0  0  0  0  0  0  0  0
    3.1228   -2.2017    0.0000 C   0  0  0  0  0  0  0  0  0  0  0  0
    3.5574   -2.9030    0.0000 C   0  0  0  0  0  0  0  0  0  0  0  0
    3.1674   -3.6300    0.0000 O   0  0  0  0  0  0  0  0  0  0  0  0
    4.3820   -2.8772    0.0000 O   0  0  0  0  0  0  0  0  0  0  0  0
    2.2982   -2.2275    0.0000 S   0  0  0  0  0  0  0  0  0  0  0  0
    2.4667   -3.0351    0.0000 O   0  0  0  0  0  0  0  0  0  0  0  0
    1.5321   -2.5337    0.0000 O   0  0  0  0  0  0  0  0  0  0  0  0
    1.8636   -1.5262    0.0000 C   0  0  0  0  0  0  0  0  0  0  0  0
    1.0390   -1.5520    0.0000 C   0  0  0  0  0  0  0  0  0  0  0  0
  1  2  1  0  0  0  0
  2  3  2  0  0  0  0
  3  4  1  0  0  0  0
  4  5  1  0  0  0  0
  5  6  2  0  0  0  0
  5  7  2  0  0  0  0
  5  8  1  0  0  0  0
  8  9  2  0  0  0  0
  9 10  1  0  0  0  0
 10 11  2  0  0  0  0
 11 12  1  0  0  0  0
 12 13  2  0  0  0  0
  8 13  1  0  0  0  0
  3 14  1  0  0  0  0
 14 15  2  0  0  0  0
 15 16  1  0  0  0  0
 16 17  2  0  0  0  0
  2 17  1  0  0  0  0
 17 18  1  0  0  0  0
 18 19  2  0  0  0  0
 19 20  1  0  0  0  0
 20 21  2  0  0  0  0
 21 22  1  0  0  0  0
 22 23  1  0  0  0  0
 23 24  1  0  0  0  0
 24 25  1  0  0  0  0
 25 26  1  0  0  0  0
 22 26  1  0  0  0  0
 26 27  2  0  0  0  0
 27 28  1  0  0  0  0
 28 29  1  0  0  0  0
 28 30  2  0  0  0  0
 27 31  1  0  0  0  0
 31 32  2  0  0  0  0
 31 33  2  0  0  0  0
 31 34  1  0  0  0  0
 21 34  1  0  0  0  0
 34 35  2  0  0  0  0
 18 35  1  0  0  0  0
M  END
> <ID>
CPD_3472

$$$$
CPD_3477
  Mrv1822 09091914012D          

 30 32  0  0  0  0            999 V2000
   -5.0013    1.2375    0.0000 C   0  0  0  0  0  0  0  0  0  0  0  0
   -4.2868    1.6500    0.0000 C   0  0  0  0  0  0  0  0  0  0  0  0
   -4.2868    2.4750    0.0000 C   0  0  0  0  0  0  0  0  0  0  0  0
   -5.0013    2.8875    0.0000 N   0  0  0  0  0  0  0  0  0  0  0  0
   -5.0013    3.7125    0.0000 S   0  0  0  0  0  0  0  0  0  0  0  0
   -5.8263    3.7125    0.0000 O   0  0  0  0  0  0  0  0  0  0  0  0
   -4.1763    3.7125    0.0000 O   0  0  0  0  0  0  0  0  0  0  0  0
   -5.0013    4.5375    0.0000 C   0  0  0  0  0  0  0  0  0  0  0  0
   -5.7158    4.9500    0.0000 C   0  0  0  0  0  0  0  0  0  0  0  0
   -5.7158    5.7750    0.0000 C   0  0  0  0  0  0  0  0  0  0  0  0
   -5.0013    6.1875    0.0000 C   0  0  0  0  0  0  0  0  0  0  0  0
   -4.2868    5.7750    0.0000 C   0  0  0  0  0  0  0  0  0  0  0  0
   -4.2868    4.9500    0.0000 C   0  0  0  0  0  0  0  0  0  0  0  0
   -3.5724    2.8875    0.0000 C   0  0  0  0  0  0  0  0  0  0  0  0
   -2.8579    2.4750    0.0000 C   0  0  0  0  0  0  0  0  0  0  0  0
   -2.8579    1.6500    0.0000 C   0  0  0  0  0  0  0  0  0  0  0  0
   -3.5724    1.2375    0.0000 C   0  0  0  0  0  0  0  0  0  0  0  0
   -3.5724    0.4125    0.0000 C   0  0  0  0  0  0  0  0  0  0  0  0
   -2.8579    0.0000    0.0000 C   0  0  0  0  0  0  0  0  0  0  0  0
   -2.8579   -0.8250    0.0000 C   0  0  0  0  0  0  0  0  0  0  0  0
   -3.5724   -1.2375    0.0000 C   0  0  0  0  0  0  0  0  0  0  0  0
   -4.2868   -0.8250    0.0000 C   0  0  0  0  0  0  0  0  0  0  0  0
   -4.2868   -0.0000    0.0000 C   0  0  0  0  0  0  0  0  0  0  0  0
   -2.1434    0.4125    0.0000 C   0  0  0  0  0  0  0  0  0  0  0  0
   -2.1434    1.2375    0.0000 O   0  0  0  0  0  0  0  0  0  0  0  0
   -1.4289    0.0000    0.0000 N   0  0  0  0  0  0  0  0  0  0  0  0
   -0.7145    0.4125    0.0000 C   0  0  0  0  0  0  0  0  0  0  0  0
    0.0000    0.0000    0.0000 C   0  0  0  0  0  0  0  0  0  0  0  0
    0.7145    0.4125    0.0000 O   0  0  0  0  0  0  0  0  0  0  0  0
   -0.0000   -0.8250    0.0000 O   0  0  0  0  0  0  0  0  0  0  0  0
  1  2  1  0  0  0  0
  2  3  2  0  0  0  0
  3  4  1  0  0  0  0
  4  5  1  0  0  0  0
  5  6  2  0  0  0  0
  5  7  2  0  0  0  0
  5  8  1  0  0  0  0
  8  9  2  0  0  0  0
  9 10  1  0  0  0  0
 10 11  2  0  0  0  0
 11 12  1  0  0  0  0
 12 13  2  0  0  0  0
  8 13  1  0  0  0  0
  3 14  1  0  0  0  0
 14 15  2  0  0  0  0
 15 16  1  0  0  0  0
 16 17  2  0  0  0  0
  2 17  1  0  0  0  0
 17 18  1  0  0  0  0
 18 19  2  0  0  0  0
 19 20  1  0  0  0  0
 20 21  2  0  0  0  0
 21 22  1  0  0  0  0
 22 23  2  0  0  0  0
 18 23  1  0  0  0  0
 19 24  1  0  0  0  0
 24 25  2  0  0  0  0
 24 26  1  0  0  0  0
 26 27  1  0  0  0  0
 27 28  1  0  0  0  0
 28 29  1  0  0  0  0
 28 30  2  0  0  0  0
M  END
> <ID>
CPD_3477

$$$$
CPD_3482
  Mrv1822 09091914012D          

 26 29  0  0  0  0            999 V2000
    1.8414   -0.5868    0.0000 C   0  0  0  0  0  0  0  0  0  0  0  0
    1.1270   -0.1743    0.0000 C   0  0  0  0  0  0  0  0  0  0  0  0
    0.4125   -0.5868    0.0000 C   0  0  0  0  0  0  0  0  0  0  0  0
    0.4125   -1.4118    0.0000 N   0  0  0  0  0  0  0  0  0  0  0  0
   -0.3020   -1.8243    0.0000 S   0  0  0  0  0  0  0  0  0  0  0  0
    0.1105   -2.5388    0.0000 O   0  0  0  0  0  0  0  0  0  0  0  0
   -0.7145   -1.1099    0.0000 O   0  0  0  0  0  0  0  0  0  0  0  0
   -1.0164   -2.2368    0.0000 C   0  0  0  0  0  0  0  0  0  0  0  0
   -1.0164   -3.0618    0.0000 C   0  0  0  0  0  0  0  0  0  0  0  0
   -1.7309   -3.4743    0.0000 C   0  0  0  0  0  0  0  0  0  0  0  0
   -2.4454   -3.0618    0.0000 C   0  0  0  0  0  0  0  0  0  0  0  0
   -2.4454   -2.2368    0.0000 C   0  0  0  0  0  0  0  0  0  0  0  0
   -1.7309   -1.8243    0.0000 C   0  0  0  0  0  0  0  0  0  0  0  0
   -0.3020   -0.1743    0.0000 C   0  0  0  0  0  0  0  0  0  0  0  0
   -0.3020    0.6507    0.0000 C   0  0  0  0  0  0  0  0  0  0  0  0
    0.4125    1.0632    0.0000 C   0  0  0  0  0  0  0  0  0  0  0  0
    1.1270    0.6507    0.0000 C   0  0  0  0  0  0  0  0  0  0  0  0
    1.8414    1.0632    0.0000 C   0  0  0  0  0  0  0  0  0  0  0  0
    1.8414    1.8882    0.0000 N   0  0  0  0  0  0  0  0  0  0  0  0
    2.5559    2.3007    0.0000 C   0  0  0  0  0  0  0  0  0  0  0  0
    3.2704    1.8882    0.0000 C   0  0  0  0  0  0  0  0  0  0  0  0
    3.2704    1.0632    0.0000 C   0  0  0  0  0  0  0  0  0  0  0  0
    2.5559    0.6507    0.0000 C   0  0  0  0  0  0  0  0  0  0  0  0
    2.5559   -0.1743    0.0000 C   0  0  0  0  0  0  0  0  0  0  0  0
    2.9684   -0.8888    0.0000 C   0  0  0  0  0  0  0  0  0  0  0  0
    2.1434   -0.8888    0.0000 C   0  0  0  0  0  0  0  0  0  0  0  0
  1  2  1  0  0  0  0
  2  3  2  0  0  0  0
  3  4  1  0  0  0  0
  4  5  1  0  0  0  0
  5  6  2  0  0  0  0
  5  7  2  0  0  0  0
  5  8  1  0  0  0  0
  8  9  2  0  0  0  0
  9 10  1  0  0  0  0
 10 11  2  0  0  0  0
 11 12  1  0  0  0  0
 12 13  2  0  0  0  0
  8 13  1  0  0  0  0
  3 14  1  0  0  0  0
 14 15  2  0  0  0  0
 15 16  1  0  0  0  0
 16 17  2  0  0  0  0
  2 17  1  0  0  0  0
 17 18  1  0  0  0  0
 18 19  2  0  0  0  0
 19 20  1  0  0  0  0
 20 21  2  0  0  0  0
 21 22  1  0  0  0  0
 22 23  2  0  0  0  0
 18 23  1  0  0  0  0
 23 24  1  0  0  0  0
 24 25  1  0  0  0  0
 25 26  1  0  0  0  0
 24 26  1  0  0  0  0
M  END
> <ID>
CPD_3482

$$$$
CPD_3487
  Mrv1822 09091914012D          

 30 33  0  0  0  0            999 V2000
    1.3911    6.6943    0.0000 C   0  0  0  0  0  0  0  0  0  0  0  0
    2.1981    6.5228    0.0000 C   0  0  0  0  0  0  0  0  0  0  0  0
    2.7501    7.1359    0.0000 C   0  0  0  0  0  0  0  0  0  0  0  0
    2.4952    7.9205    0.0000 N   0  0  0  0  0  0  0  0  0  0  0  0
    3.0472    8.5336    0.0000 S   0  0  0  0  0  0  0  0  0  0  0  0
    2.4341    9.0857    0.0000 O   0  0  0  0  0  0  0  0  0  0  0  0
    3.6603    7.9816    0.0000 O   0  0  0  0  0  0  0  0  0  0  0  0
    3.5992    9.1467    0.0000 C   0  0  0  0  0  0  0  0  0  0  0  0
    3.3443    9.9313    0.0000 C   0  0  0  0  0  0  0  0  0  0  0  0
    3.8963   10.5444    0.0000 C   0  0  0  0  0  0  0  0  0  0  0  0
    4.7033   10.3729    0.0000 C   0  0  0  0  0  0  0  0  0  0  0  0
    4.9582    9.5883    0.0000 C   0  0  0  0  0  0  0  0  0  0  0  0
    4.4062    8.9752    0.0000 C   0  0  0  0  0  0  0  0  0  0  0  0
    3.5571    6.9644    0.0000 C   0  0  0  0  0  0  0  0  0  0  0  0
    3.8120    6.1798    0.0000 C   0  0  0  0  0  0  0  0  0  0  0  0
    3.2600    5.5667    0.0000 C   0  0  0  0  0  0  0  0  0  0  0  0
    2.4530    5.7382    0.0000 C   0  0  0  0  0  0  0  0  0  0  0  0
    1.9010    5.1251    0.0000 C   0  0  0  0  0  0  0  0  0  0  0  0
    2.1559    4.3405    0.0000 C   0  0  0  0  0  0  0  0  0  0  0  0
    1.6039    3.7274    0.0000 C   0  0  0  0  0  0  0  0  0  0  0  0
    0.7969    3.8989    0.0000 C   0  0  0  0  0  0  0  0  0  0  0  0
    0.5420    4.6835    0.0000 C   0  0  0  0  0  0  0  0  0  0  0  0
    1.0940    5.2966    0.0000 C   0  0  0  0  0  0  0  0  0  0  0  0
    0.2449    3.2858    0.0000 C   0  0  0  0  0  0  0  0  0  0  0  0
   -0.3071    3.8989    0.0000 C   0  0  0  0  0  0  0  0  0  0  0  0
   -1.1141    3.7274    0.0000 N   0  0  0  0  0  0  0  0  0  0  0  0
    0.9123    2.8009    0.0000 C   0  0  0  0  0  0  0  0  0  0  0  0
    0.6574    2.0163    0.0000 C   0  0  0  0  0  0  0  0  0  0  0  0
   -0.1676    2.0163    0.0000 C   0  0  0  0  0  0  0  0  0  0  0  0
   -0.4226    2.8009    0.0000 C   0  0  0  0  0  0  0  0  0  0  0  0
  1  2  1  0  0  0  0
  2  3  2  0  0  0  0
  3  4  1  0  0  0  0
  4  5  1  0  0  0  0
  5  6  2  0  0  0  0
  5  7  2  0  0  0  0
  5  8  1  0  0  0  0
  8  9  2  0  0  0  0
  9 10  1  0  0  0  0
 10 11  2  0  0  0  0
 11 12  1  0  0  0  0
 12 13  2  0  0  0  0
  8 13  1  0  0  0  0
  3 14  1  0  0  0  0
 14 15  2  0  0  0  0
 15 16  1  0  0  0  0
 16 17  2  0  0  0  0
  2 17  1  0  0  0  0
 17 18  1  0  0  0  0
 18 19  2  0  0  0  0
 19 20  1  0  0  0  0
 20 21  2  0  0  0  0
 21 22  1  0  0  0  0
 22 23  2  0  0  0  0
 18 23  1  0  0  0  0
 21 24  1  0  0  0  0
 24 25  1  0  0  0  0
 25 26  1  0  0  0  0
 24 27  1  0  0  0  0
 27 28  1  0  0  0  0
 28 29  1  0  0  0  0
 29 30  1  0  0  0  0
 24 30  1  0  0  0  0
M  END
> <ID>
CPD_3487

$$$$
CPD_3492
  Mrv1822 09091914012D          

 34 36  0  0  0  0            999 V2000
    0.0000   -2.4750    0.0000 C   0  0  0  0  0  0  0  0  0  0  0  0
    0.7145   -2.8875    0.0000 C   0  0  0  0  0  0  0  0  0  0  0  0
    0.7145   -3.7125    0.0000 C   0  0  0  0  0  0  0  0  0  0  0  0
    1.4289   -4.1250    0.0000 O   0  0  0  0  0  0  0  0  0  0  0  0
    1.4289   -4.9500    0.0000 C   0  0  0  0  0  0  0  0  0  0  0  0
    2.1434   -5.3625    0.0000 C   0  0  0  0  0  0  0  0  0  0  0  0
    2.1434   -6.1875    0.0000 C   0  0  0  0  0  0  0  0  0  0  0  0
    2.8579   -6.6000    0.0000 C   0  0  0  0  0  0  0  0  0  0  0  0
    3.5724   -6.1875    0.0000 C   0  0  0  0  0  0  0  0  0  0  0  0
    4.2868   -6.6000    0.0000 C   0  0  0  0  0  0  0  0  0  0  0  0
    4.2868   -7.4250    0.0000 C   0  0  0  0  0  0  0  0  0  0  0  0
    5.0013   -7.8375    0.0000 C   0  0  0  0  0  0  0  0  0  0  0  0
    5.7158   -7.4250    0.0000 N   0  0  0  0  0  0  0  0  0  0  0  0
    6.4302   -7.8375    0.0000 C   0  0  0  0  0  0  0  0  0  0  0  0
    7.1447   -7.4250    0.0000 C   0  0  0  0  0  0  0  0  0  0  0  0
    7.1447   -6.6000    0.0000 F   0  0  0  0  0  0  0  0  0  0  0  0
    7.8592   -7.8375    0.0000 C   0  0  0  0  0  0  0  0  0  0  0  0
    7.8592   -8.6625    0.0000 C   0  0  0  0  0  0  0  0  0  0  0  0
    7.1447   -9.0750    0.0000 C   0  0  0  0  0  0  0  0  0  0  0  0
    6.4302   -8.6625    0.0000 C   0  0  0  0  0  0  0  0  0  0  0  0
    5.7158   -6.6000    0.0000 S   0  0  0  0  0  0  0  0  0  0  0  0
    5.7158   -5.7750    0.0000 C   0  0  0  0  0  0  0  0  0  0  0  0
    6.5408   -6.6000    0.0000 O   0  0  0  0  0  0  0  0  0  0  0  0
    4.8908   -6.6000    0.0000 O   0  0  0  0  0  0  0  0  0  0  0  0
    3.5724   -7.8375    0.0000 C   0  0  0  0  0  0  0  0  0  0  0  0
    2.8579   -7.4250    0.0000 C   0  0  0  0  0  0  0  0  0  0  0  0
    1.4289   -6.6000    0.0000 C   0  0  0  0  0  0  0  0  0  0  0  0
    0.7145   -6.1875    0.0000 C   0  0  0  0  0  0  0  0  0  0  0  0
    0.7145   -5.3625    0.0000 C   0  0  0  0  0  0  0  0  0  0  0  0
    0.0000   -4.9500    0.0000 O   0  0  0  0  0  0  0  0  0  0  0  0
    0.0000   -4.1250    0.0000 C   0  0  0  0  0  0  0  0  0  0  0  0
    1.4289   -7.4250    0.0000 C   0  0  0  0  0  0  0  0  0  0  0  0
    0.7145   -7.8375    0.0000 O   0  0  0  0  0  0  0  0  0  0  0  0
    2.1434   -7.8375    0.0000 O   0  0  0  0  0  0  0  0  0  0  0  0
  1  2  1  0  0  0  0
  2  3  1  0  0  0  0
  3  4  1  0  0  0  0
  4  5  1  0  0  0  0
  5  6  2  0  0  0  0
  6  7  1  0  0  0  0
  7  8  1  0  0  0  0
  8  9  2  0  0  0  0
  9 10  1  0  0  0  0
 10 11  2  0  0  0  0
 11 12  1  0  0  0  0
 12 13  1  0  0  0  0
 13 14  1  0  0  0  0
 14 15  2  0  0  0  0
 15 16  1  0  0  0  0
 15 17  1  0  0  0  0
 17 18  2  0  0  0  0
 18 19  1  0  0  0  0
 19 20  2  0  0  0  0
 14 20  1  0  0  0  0
 13 21  1  0  0  0  0
 21 22  1  0  0  0  0
 21 23  2  0  0  0  0
 21 24  2  0  0  0  0
 11 25  1  0  0  0  0
 25 26  2  0  0  0  0
  8 26  1  0  0  0  0
  7 27  2  0  0  0  0
 27 28  1  0  0  0  0
 28 29  2  0  0  0  0
  5 29  1  0  0  0  0
 29 30  1  0  0  0  0
 30 31  1  0  0  0  0
 27 32  1  0  0  0  0
 32 33  1  0  0  0  0
 32 34  2  0  0  0  0
M  END
> <ID>
CPD_3492

$$$$
CPD_3497
  Mrv1822 09091914012D          

 31 34  0  0  0  0            999 V2000
    3.4656   -2.9491    0.0000 C   0  0  0  0  0  0  0  0  0  0  0  0
    3.4656   -3.7741    0.0000 C   0  0  0  0  0  0  0  0  0  0  0  0
    4.1801   -4.1866    0.0000 C   0  0  0  0  0  0  0  0  0  0  0  0
    4.1801   -5.0116    0.0000 C   0  0  0  0  0  0  0  0  0  0  0  0
    3.4656   -5.4241    0.0000 C   0  0  0  0  0  0  0  0  0  0  0  0
    2.7512   -5.0116    0.0000 C   0  0  0  0  0  0  0  0  0  0  0  0
    2.7512   -4.1866    0.0000 C   0  0  0  0  0  0  0  0  0  0  0  0
    3.4656   -6.2491    0.0000 N   0  0  0  0  0  0  0  0  0  0  0  0
    4.1331   -6.7340    0.0000 C   0  0  0  0  0  0  0  0  0  0  0  0
    3.8781   -7.5187    0.0000 C   0  0  0  0  0  0  0  0  0  0  0  0
    3.0531   -7.5187    0.0000 C   0  0  0  0  0  0  0  0  0  0  0  0
    2.7982   -6.7340    0.0000 C   0  0  0  0  0  0  0  0  0  0  0  0
    4.8946   -3.7741    0.0000 C   0  0  0  0  0  0  0  0  0  0  0  0
    4.8946   -2.9491    0.0000 C   0  0  0  0  0  0  0  0  0  0  0  0
    5.6091   -2.5366    0.0000 C   0  0  0  0  0  0  0  0  0  0  0  0
    6.3235   -2.9491    0.0000 C   0  0  0  0  0  0  0  0  0  0  0  0
    7.0380   -2.5366    0.0000 C   0  0  0  0  0  0  0  0  0  0  0  0
    7.0380   -1.7116    0.0000 N   0  0  0  0  0  0  0  0  0  0  0  0
    7.7525   -1.2991    0.0000 C   0  0  0  0  0  0  0  0  0  0  0  0
    7.7525   -0.4741    0.0000 C   0  0  0  0  0  0  0  0  0  0  0  0
    7.0380   -0.0616    0.0000 F   0  0  0  0  0  0  0  0  0  0  0  0
    8.4669   -0.0616    0.0000 C   0  0  0  0  0  0  0  0  0  0  0  0
    9.1814   -0.4741    0.0000 C   0  0  0  0  0  0  0  0  0  0  0  0
    9.1814   -1.2991    0.0000 C   0  0  0  0  0  0  0  0  0  0  0  0
    8.4669   -1.7116    0.0000 C   0  0  0  0  0  0  0  0  0  0  0  0
    6.3235   -1.2991    0.0000 S   0  0  0  0  0  0  0  0  0  0  0  0
    5.6091   -0.8866    0.0000 C   0  0  0  0  0  0  0  0  0  0  0  0
    6.7360   -0.5846    0.0000 O   0  0  0  0  0  0  0  0  0  0  0  0
    5.9110   -2.0136    0.0000 O   0  0  0  0  0  0  0  0  0  0  0  0
    6.3235   -3.7741    0.0000 C   0  0  0  0  0  0  0  0  0  0  0  0
    5.6091   -4.1866    0.0000 C   0  0  0  0  0  0  0  0  0  0  0  0
  1  2  1  0  0  0  0
  2  3  2  0  0  0  0
  3  4  1  0  0  0  0
  4  5  2  0  0  0  0
  5  6  1  0  0  0  0
  6  7  2  0  0  0  0
  2  7  1  0  0  0  0
  5  8  1  0  0  0  0
  8  9  1  0  0  0  0
  9 10  1  0  0  0  0
 10 11  1  0  0  0  0
 11 12  1  0  0  0  0
  8 12  1  0  0  0  0
  3 13  1  0  0  0  0
 13 14  2  0  0  0  0
 14 15  1  0  0  0  0
 15 16  2  0  0  0  0
 16 17  1  0  0  0  0
 17 18  1  0  0  0  0
 18 19  1  0  0  0  0
 19 20  2  0  0  0  0
 20 21  1  0  0  0  0
 20 22  1  0  0  0  0
 22 23  2  0  0  0  0
 23 24  1  0  0  0  0
 24 25  2  0  0  0  0
 19 25  1  0  0  0  0
 18 26  1  0  0  0  0
 26 27  1  0  0  0  0
 26 28  2  0  0  0  0
 26 29  2  0  0  0  0
 16 30  1  0  0  0  0
 30 31  2  0  0  0  0
 13 31  1  0  0  0  0
M  END
> <ID>
CPD_3497

$$$$
CPD_3502
  Mrv1822 09091914012D          

 30 32  0  0  0  0            999 V2000
   -2.8540   -4.4054    0.0000 C   0  0  0  0  0  0  0  0  0  0  0  0
   -2.0470   -4.2338    0.0000 C   0  0  0  0  0  0  0  0  0  0  0  0
   -1.8755   -5.0408    0.0000 C   0  0  0  0  0  0  0  0  0  0  0  0
   -2.2185   -3.4269    0.0000 C   0  0  0  0  0  0  0  0  0  0  0  0
   -1.2400   -4.0623    0.0000 O   0  0  0  0  0  0  0  0  0  0  0  0
   -0.9851   -3.2777    0.0000 C   0  0  0  0  0  0  0  0  0  0  0  0
   -1.5371   -2.6646    0.0000 O   0  0  0  0  0  0  0  0  0  0  0  0
   -0.1781   -3.1062    0.0000 N   0  0  0  0  0  0  0  0  0  0  0  0
    0.0768   -2.3215    0.0000 C   0  0  0  0  0  0  0  0  0  0  0  0
    0.8838   -2.1500    0.0000 C   0  0  0  0  0  0  0  0  0  0  0  0
    1.1387   -1.3654    0.0000 N   0  0  0  0  0  0  0  0  0  0  0  0
    0.6538   -0.6979    0.0000 C   0  0  0  0  0  0  0  0  0  0  0  0
    1.1387   -0.0305    0.0000 N   0  0  0  0  0  0  0  0  0  0  0  0
    1.9233   -0.2854    0.0000 C   0  0  0  0  0  0  0  0  0  0  0  0
    2.6378    0.1271    0.0000 C   0  0  0  0  0  0  0  0  0  0  0  0
    3.3523   -0.2854    0.0000 C   0  0  0  0  0  0  0  0  0  0  0  0
    3.3523   -1.1104    0.0000 C   0  0  0  0  0  0  0  0  0  0  0  0
    2.6378   -1.5229    0.0000 C   0  0  0  0  0  0  0  0  0  0  0  0
    1.9233   -1.1104    0.0000 C   0  0  0  0  0  0  0  0  0  0  0  0
    4.0668    0.1271    0.0000 C   0  0  0  0  0  0  0  0  0  0  0  0
    4.0668    0.9521    0.0000 C   0  0  0  0  0  0  0  0  0  0  0  0
    4.7812    1.3646    0.0000 C   0  0  0  0  0  0  0  0  0  0  0  0
    5.4957    0.9521    0.0000 C   0  0  0  0  0  0  0  0  0  0  0  0
    5.4957    0.1271    0.0000 C   0  0  0  0  0  0  0  0  0  0  0  0
    4.7812   -0.2854    0.0000 C   0  0  0  0  0  0  0  0  0  0  0  0
    6.2102    1.3646    0.0000 C   0  0  0  0  0  0  0  0  0  0  0  0
    6.9246    1.7771    0.0000 C   0  0  0  0  0  0  0  0  0  0  0  0
    7.6391    2.1896    0.0000 C   0  0  0  0  0  0  0  0  0  0  0  0
    7.6391    3.0146    0.0000 O   0  0  0  0  0  0  0  0  0  0  0  0
    8.3536    1.7771    0.0000 O   0  0  0  0  0  0  0  0  0  0  0  0
  1  2  1  0  0  0  0
  2  3  1  0  0  0  0
  2  4  1  0  0  0  0
  2  5  1  0  0  0  0
  5  6  1  0  0  0  0
  6  7  2  0  0  0  0
  6  8  1  0  0  0  0
  8  9  1  0  0  0  0
  9 10  1  0  0  0  0
 10 11  1  0  0  0  0
 11 12  1  0  0  0  0
 12 13  2  0  0  0  0
 13 14  1  0  0  0  0
 14 15  2  0  0  0  0
 15 16  1  0  0  0  0
 16 17  2  0  0  0  0
 17 18  1  0  0  0  0
 18 19  2  0  0  0  0
 11 19  1  0  0  0  0
 14 19  1  0  0  0  0
 16 20  1  0  0  0  0
 20 21  2  0  0  0  0
 21 22  1  0  0  0  0
 22 23  2  0  0  0  0
 23 24  1  0  0  0  0
 24 25  2  0  0  0  0
 20 25  1  0  0  0  0
 23 26  1  0  0  0  0
 26 27  3  0  0  0  0
 27 28  1  0  0  0  0
 28 29  1  0  0  0  0
 28 30  2  0  0  0  0
M  END
> <ID>
CPD_3502

$$$$
CPD_3507
  Mrv1822 09091914012D          

 28 30  0  0  0  0            999 V2000
    6.2102    1.9354    0.0000 C   0  0  0  0  0  0  0  0  0  0  0  0
    5.4957    2.3479    0.0000 C   0  0  0  0  0  0  0  0  0  0  0  0
    4.7812    1.9354    0.0000 C   0  0  0  0  0  0  0  0  0  0  0  0
    4.0668    2.3479    0.0000 C   0  0  0  0  0  0  0  0  0  0  0  0
    4.0668    3.1729    0.0000 C   0  0  0  0  0  0  0  0  0  0  0  0
    4.7812    3.5854    0.0000 C   0  0  0  0  0  0  0  0  0  0  0  0
    5.4957    3.1729    0.0000 C   0  0  0  0  0  0  0  0  0  0  0  0
    4.7812    4.4104    0.0000 C   0  0  0  0  0  0  0  0  0  0  0  0
    4.7812    5.2354    0.0000 N   0  0  0  0  0  0  0  0  0  0  0  0
    3.3523    1.9354    0.0000 C   0  0  0  0  0  0  0  0  0  0  0  0
    3.3523    1.1104    0.0000 C   0  0  0  0  0  0  0  0  0  0  0  0
    2.6378    0.6979    0.0000 C   0  0  0  0  0  0  0  0  0  0  0  0
    1.9233    1.1104    0.0000 C   0  0  0  0  0  0  0  0  0  0  0  0
    1.1387    0.8555    0.0000 N   0  0  0  0  0  0  0  0  0  0  0  0
    0.8838    0.0709    0.0000 C   0  0  0  0  0  0  0  0  0  0  0  0
    1.4358   -0.5422    0.0000 C   0  0  0  0  0  0  0  0  0  0  0  0
    1.1809   -1.3268    0.0000 N   0  0  0  0  0  0  0  0  0  0  0  0
    1.7329   -1.9399    0.0000 C   0  0  0  0  0  0  0  0  0  0  0  0
    2.5399   -1.7684    0.0000 O   0  0  0  0  0  0  0  0  0  0  0  0
    1.4780   -2.7246    0.0000 O   0  0  0  0  0  0  0  0  0  0  0  0
    2.0300   -3.3376    0.0000 C   0  0  0  0  0  0  0  0  0  0  0  0
    2.5820   -3.9507    0.0000 C   0  0  0  0  0  0  0  0  0  0  0  0
    1.4169   -3.8897    0.0000 C   0  0  0  0  0  0  0  0  0  0  0  0
    2.6431   -2.7856    0.0000 C   0  0  0  0  0  0  0  0  0  0  0  0
    0.6538    1.5229    0.0000 C   0  0  0  0  0  0  0  0  0  0  0  0
    1.1387    2.1904    0.0000 N   0  0  0  0  0  0  0  0  0  0  0  0
    1.9233    1.9354    0.0000 C   0  0  0  0  0  0  0  0  0  0  0  0
    2.6378    2.3479    0.0000 C   0  0  0  0  0  0  0  0  0  0  0  0
  1  2  1  0  0  0  0
  2  3  2  0  0  0  0
  3  4  1  0  0  0  0
  4  5  2  0  0  0  0
  5  6  1  0  0  0  0
  6  7  2  0  0  0  0
  2  7  1  0  0  0  0
  6  8  1  0  0  0  0
  8  9  3  0  0  0  0
  4 10  1  0  0  0  0
 10 11  2  0  0  0  0
 11 12  1  0  0  0  0
 12 13  2  0  0  0  0
 13 14  1  0  0  0  0
 14 15  1  0  0  0  0
 15 16  1  0  0  0  0
 16 17  1  0  0  0  0
 17 18  1  0  0  0  0
 18 19  2  0  0  0  0
 18 20  1  0  0  0  0
 20 21  1  0  0  0  0
 21 22  1  0  0  0  0
 21 23  1  0  0  0  0
 21 24  1  0  0  0  0
 14 25  1  0  0  0  0
 25 26  2  0  0  0  0
 26 27  1  0  0  0  0
 13 27  1  0  0  0  0
 27 28  2  0  0  0  0
 10 28  1  0  0  0  0
M  END
> <ID>
CPD_3507

$$$$
CPD_3512
  Mrv1822 09091914012D          

 35 38  0  0  0  0            999 V2000
   -2.8540   -4.4054    0.0000 C   0  0  0  0  0  0  0  0  0  0  0  0
   -2.0470   -4.2338    0.0000 C   0  0  0  0  0  0  0  0  0  0  0  0
   -1.8755   -5.0408    0.0000 C   0  0  0  0  0  0  0  0  0  0  0  0
   -2.2185   -3.4269    0.0000 C   0  0  0  0  0  0  0  0  0  0  0  0
   -1.2400   -4.0623    0.0000 O   0  0  0  0  0  0  0  0  0  0  0  0
   -0.9851   -3.2777    0.0000 C   0  0  0  0  0  0  0  0  0  0  0  0
   -1.5371   -2.6646    0.0000 O   0  0  0  0  0  0  0  0  0  0  0  0
   -0.1781   -3.1062    0.0000 N   0  0  0  0  0  0  0  0  0  0  0  0
    0.0768   -2.3215    0.0000 C   0  0  0  0  0  0  0  0  0  0  0  0
    0.8838   -2.1500    0.0000 C   0  0  0  0  0  0  0  0  0  0  0  0
    1.1387   -1.3654    0.0000 N   0  0  0  0  0  0  0  0  0  0  0  0
    0.6538   -0.6979    0.0000 C   0  0  0  0  0  0  0  0  0  0  0  0
    1.1387   -0.0305    0.0000 N   0  0  0  0  0  0  0  0  0  0  0  0
    1.9233   -0.2854    0.0000 C   0  0  0  0  0  0  0  0  0  0  0  0
    2.6378    0.1271    0.0000 C   0  0  0  0  0  0  0  0  0  0  0  0
    3.3523   -0.2854    0.0000 C   0  0  0  0  0  0  0  0  0  0  0  0
    3.3523   -1.1104    0.0000 C   0  0  0  0  0  0  0  0  0  0  0  0
    2.6378   -1.5229    0.0000 C   0  0  0  0  0  0  0  0  0  0  0  0
    1.9233   -1.1104    0.0000 C   0  0  0  0  0  0  0  0  0  0  0  0
    4.0668    0.1271    0.0000 C   0  0  0  0  0  0  0  0  0  0  0  0
    4.0668    0.9521    0.0000 C   0  0  0  0  0  0  0  0  0  0  0  0
    4.7812    1.3646    0.0000 C   0  0  0  0  0  0  0  0  0  0  0  0
    5.4957    0.9521    0.0000 C   0  0  0  0  0  0  0  0  0  0  0  0
    5.4957    0.1271    0.0000 C   0  0  0  0  0  0  0  0  0  0  0  0
    4.7812   -0.2854    0.0000 C   0  0  0  0  0  0  0  0  0  0  0  0
    6.2102    1.3646    0.0000 C   0  0  0  0  0  0  0  0  0  0  0  0
    6.9246    0.9521    0.0000 N   0  0  0  0  0  0  0  0  0  0  0  0
    7.6391    1.3646    0.0000 C   0  0  0  0  0  0  0  0  0  0  0  0
    8.3536    0.9521    0.0000 C   0  0  0  0  0  0  0  0  0  0  0  0
    8.3536    0.1271    0.0000 C   0  0  0  0  0  0  0  0  0  0  0  0
    7.6391   -0.2854    0.0000 C   0  0  0  0  0  0  0  0  0  0  0  0
    6.9246    0.1271    0.0000 C   0  0  0  0  0  0  0  0  0  0  0  0
    6.2102    2.1896    0.0000 C   0  0  0  0  0  0  0  0  0  0  0  0
    6.9246    2.6021    0.0000 O   0  0  0  0  0  0  0  0  0  0  0  0
    5.4957    2.6021    0.0000 O   0  0  0  0  0  0  0  0  0  0  0  0
  1  2  1  0  0  0  0
  2  3  1  0  0  0  0
  2  4  1  0  0  0  0
  2  5  1  0  0  0  0
  5  6  1  0  0  0  0
  6  7  2  0  0  0  0
  6  8  1  0  0  0  0
  8  9  1  0  0  0  0
  9 10  1  0  0  0  0
 10 11  1  0  0  0  0
 11 12  1  0  0  0  0
 12 13  2  0  0  0  0
 13 14  1  0  0  0  0
 14 15  2  0  0  0  0
 15 16  1  0  0  0  0
 16 17  2  0  0  0  0
 17 18  1  0  0  0  0
 18 19  2  0  0  0  0
 11 19  1  0  0  0  0
 14 19  1  0  0  0  0
 16 20  1  0  0  0  0
 20 21  2  0  0  0  0
 21 22  1  0  0  0  0
 22 23  2  0  0  0  0
 23 24  1  0  0  0  0
 24 25  2  0  0  0  0
 20 25  1  0  0  0  0
 23 26  1  0  0  0  0
 26 27  1  0  0  0  0
 27 28  1  0  0  0  0
 28 29  1  0  0  0  0
 29 30  1  0  0  0  0
 30 31  1  0  0  0  0
 31 32  1  0  0  0  0
 27 32  1  0  0  0  0
 26 33  1  0  0  0  0
 33 34  1  0  0  0  0
 33 35  2  0  0  0  0
M  END
> <ID>
CPD_3512

$$$$
CPD_3517
  Mrv1822 09091914012D          

 26 29  0  0  0  0            999 V2000
    0.0000    0.0000    0.0000 C   0  0  0  0  0  0  0  0  0  0  0  0
    0.7145   -0.4125    0.0000 C   0  0  0  0  0  0  0  0  0  0  0  0
    1.4289    0.0000    0.0000 N   0  0  0  0  0  0  0  0  0  0  0  0
    2.1434   -0.4125    0.0000 C   0  0  0  0  0  0  0  0  0  0  0  0
    2.8579    0.0000    0.0000 C   0  0  0  0  0  0  0  0  0  0  0  0
    3.5724   -0.4125    0.0000 C   0  0  0  0  0  0  0  0  0  0  0  0
    4.2868   -0.0000    0.0000 Cl  0  0  0  0  0  0  0  0  0  0  0  0
    3.5724   -1.2375    0.0000 C   0  0  0  0  0  0  0  0  0  0  0  0
    4.2868   -1.6500    0.0000 F   0  0  0  0  0  0  0  0  0  0  0  0
    2.8579   -1.6500    0.0000 C   0  0  0  0  0  0  0  0  0  0  0  0
    2.1434   -1.2375    0.0000 C   0  0  0  0  0  0  0  0  0  0  0  0
    1.4289   -1.6500    0.0000 C   0  0  0  0  0  0  0  0  0  0  0  0
    0.7145   -1.2375    0.0000 C   0  0  0  0  0  0  0  0  0  0  0  0
    1.4289   -2.4750    0.0000 C   0  0  0  0  0  0  0  0  0  0  0  0
    2.1434   -2.8875    0.0000 C   0  0  0  0  0  0  0  0  0  0  0  0
    2.1434   -3.7125    0.0000 C   0  0  0  0  0  0  0  0  0  0  0  0
    1.4289   -4.1250    0.0000 C   0  0  0  0  0  0  0  0  0  0  0  0
    0.7145   -3.7125    0.0000 C   0  0  0  0  0  0  0  0  0  0  0  0
    0.7145   -2.8875    0.0000 N   0  0  0  0  0  0  0  0  0  0  0  0
    0.0000   -4.1250    0.0000 N   0  0  0  0  0  0  0  0  0  0  0  0
    0.0000   -4.9500    0.0000 C   0  0  0  0  0  0  0  0  0  0  0  0
   -0.7145   -5.3625    0.0000 C   0  0  0  0  0  0  0  0  0  0  0  0
   -1.4289   -4.9500    0.0000 N   0  0  0  0  0  0  0  0  0  0  0  0
   -1.4289   -4.1250    0.0000 C   0  0  0  0  0  0  0  0  0  0  0  0
   -2.1434   -3.7125    0.0000 O   0  0  0  0  0  0  0  0  0  0  0  0
   -0.7145   -3.7125    0.0000 C   0  0  0  0  0  0  0  0  0  0  0  0
  1  2  1  0  0  0  0
  2  3  2  0  0  0  0
  3  4  1  0  0  0  0
  4  5  2  0  0  0  0
  5  6  1  0  0  0  0
  6  7  1  0  0  0  0
  6  8  2  0  0  0  0
  8  9  1  0  0  0  0
  8 10  1  0  0  0  0
 10 11  2  0  0  0  0
  4 11  1  0  0  0  0
 11 12  1  0  0  0  0
 12 13  2  0  0  0  0
  2 13  1  0  0  0  0
 12 14  1  0  0  0  0
 14 15  2  0  0  0  0
 15 16  1  0  0  0  0
 16 17  2  0  0  0  0
 17 18  1  0  0  0  0
 18 19  2  0  0  0  0
 14 19  1  0  0  0  0
 18 20  1  0  0  0  0
 20 21  1  0  0  0  0
 21 22  1  0  0  0  0
 22 23  1  0  0  0  0
 23 24  1  0  0  0  0
 24 25  2  0  0  0  0
 24 26  1  0  0  0  0
 20 26  1  0  0  0  0
M  END
> <ID>
CPD_3517

$$$$
CPD_3522
  Mrv1822 09091914012D          

 31 34  0  0  0  0            999 V2000
   -0.8212   -2.9491    0.0000 C   0  0  0  0  0  0  0  0  0  0  0  0
   -1.5356   -2.5366    0.0000 C   0  0  0  0  0  0  0  0  0  0  0  0
   -2.2501   -2.9491    0.0000 C   0  0  0  0  0  0  0  0  0  0  0  0
   -2.9646   -2.5366    0.0000 C   0  0  0  0  0  0  0  0  0  0  0  0
   -2.9646   -1.7116    0.0000 C   0  0  0  0  0  0  0  0  0  0  0  0
   -2.2501   -1.2991    0.0000 C   0  0  0  0  0  0  0  0  0  0  0  0
   -1.5356   -1.7116    0.0000 C   0  0  0  0  0  0  0  0  0  0  0  0
   -0.8212   -1.2991    0.0000 C   0  0  0  0  0  0  0  0  0  0  0  0
   -0.8212   -0.4741    0.0000 N   0  0  0  0  0  0  0  0  0  0  0  0
   -0.1067   -0.0616    0.0000 C   0  0  0  0  0  0  0  0  0  0  0  0
   -0.1067    0.7634    0.0000 C   0  0  0  0  0  0  0  0  0  0  0  0
    0.6078    1.1759    0.0000 C   0  0  0  0  0  0  0  0  0  0  0  0
    1.3222    0.7634    0.0000 C   0  0  0  0  0  0  0  0  0  0  0  0
    1.3222   -0.0616    0.0000 C   0  0  0  0  0  0  0  0  0  0  0  0
    0.6078   -0.4741    0.0000 C   0  0  0  0  0  0  0  0  0  0  0  0
    2.0367    1.1759    0.0000 C   0  0  0  0  0  0  0  0  0  0  0  0
    2.0367    2.0009    0.0000 C   0  0  0  0  0  0  0  0  0  0  0  0
    2.7512    2.4134    0.0000 C   0  0  0  0  0  0  0  0  0  0  0  0
    3.4656    2.0009    0.0000 C   0  0  0  0  0  0  0  0  0  0  0  0
    3.4656    1.1759    0.0000 C   0  0  0  0  0  0  0  0  0  0  0  0
    2.7512    0.7634    0.0000 C   0  0  0  0  0  0  0  0  0  0  0  0
    2.7512   -0.0616    0.0000 C   0  0  0  0  0  0  0  0  0  0  0  0
    3.4186   -0.5465    0.0000 N   0  0  0  0  0  0  0  0  0  0  0  0
    3.1637   -1.3312    0.0000 N   0  0  0  0  0  0  0  0  0  0  0  0
    2.3387   -1.3312    0.0000 C   0  0  0  0  0  0  0  0  0  0  0  0
    1.8538   -1.9986    0.0000 N   0  0  0  0  0  0  0  0  0  0  0  0
    2.0837   -0.5465    0.0000 C   0  0  0  0  0  0  0  0  0  0  0  0
   -1.5356   -0.0616    0.0000 S   0  0  0  0  0  0  0  0  0  0  0  0
   -2.2501    0.3509    0.0000 C   0  0  0  0  0  0  0  0  0  0  0  0
   -1.1231    0.6529    0.0000 O   0  0  0  0  0  0  0  0  0  0  0  0
   -1.9481   -0.7761    0.0000 O   0  0  0  0  0  0  0  0  0  0  0  0
  1  2  1  0  0  0  0
  2  3  2  0  0  0  0
  3  4  1  0  0  0  0
  4  5  2  0  0  0  0
  5  6  1  0  0  0  0
  6  7  2  0  0  0  0
  2  7  1  0  0  0  0
  7  8  1  0  0  0  0
  8  9  1  0  0  0  0
  9 10  1  0  0  0  0
 10 11  2  0  0  0  0
 11 12  1  0  0  0  0
 12 13  2  0  0  0  0
 13 14  1  0  0  0  0
 14 15  2  0  0  0  0
 10 15  1  0  0  0  0
 13 16  1  0  0  0  0
 16 17  2  0  0  0  0
 17 18  1  0  0  0  0
 18 19  2  0  0  0  0
 19 20  1  0  0  0  0
 20 21  2  0  0  0  0
 16 21  1  0  0  0  0
 21 22  1  0  0  0  0
 22 23  2  0  0  0  0
 23 24  1  0  0  0  0
 24 25  1  0  0  0  0
 25 26  1  0  0  0  0
 25 27  2  0  0  0  0
 22 27  1  0  0  0  0
  9 28  1  0  0  0  0
 28 29  1  0  0  0  0
 28 30  2  0  0  0  0
 28 31  2  0  0  0  0
M  END
> <ID>
CPD_3522

$$$$
CPD_3527
  Mrv1822 09091914012D          

 35 39  0  0  0  0            999 V2000
    8.3797    5.4312    0.0000 C   0  0  0  0  0  0  0  0  0  0  0  0
    8.9518    4.8367    0.0000 C   0  0  0  0  0  0  0  0  0  0  0  0
    9.7526    5.0349    0.0000 C   0  0  0  0  0  0  0  0  0  0  0  0
   10.3247    4.4404    0.0000 C   0  0  0  0  0  0  0  0  0  0  0  0
   10.0958    3.6478    0.0000 C   0  0  0  0  0  0  0  0  0  0  0  0
    9.2950    3.4496    0.0000 C   0  0  0  0  0  0  0  0  0  0  0  0
    8.7230    4.0441    0.0000 C   0  0  0  0  0  0  0  0  0  0  0  0
    7.9221    3.8459    0.0000 C   0  0  0  0  0  0  0  0  0  0  0  0
    7.6933    3.0533    0.0000 N   0  0  0  0  0  0  0  0  0  0  0  0
    6.8924    2.8551    0.0000 C   0  0  0  0  0  0  0  0  0  0  0  0
    6.6636    2.0625    0.0000 C   0  0  0  0  0  0  0  0  0  0  0  0
    5.8628    1.8643    0.0000 C   0  0  0  0  0  0  0  0  0  0  0  0
    5.2907    2.4588    0.0000 C   0  0  0  0  0  0  0  0  0  0  0  0
    5.5196    3.2515    0.0000 C   0  0  0  0  0  0  0  0  0  0  0  0
    6.3204    3.4496    0.0000 C   0  0  0  0  0  0  0  0  0  0  0  0
    4.4899    2.2607    0.0000 C   0  0  0  0  0  0  0  0  0  0  0  0
    3.9179    2.8551    0.0000 C   0  0  0  0  0  0  0  0  0  0  0  0
    3.1170    2.6570    0.0000 C   0  0  0  0  0  0  0  0  0  0  0  0
    2.8882    1.8643    0.0000 C   0  0  0  0  0  0  0  0  0  0  0  0
    2.0874    1.6662    0.0000 O   0  0  0  0  0  0  0  0  0  0  0  0
    1.5153    2.2607    0.0000 C   0  0  0  0  0  0  0  0  0  0  0  0
    1.2865    1.4680    0.0000 C   0  0  0  0  0  0  0  0  0  0  0  0
    0.4857    1.2699    0.0000 C   0  0  0  0  0  0  0  0  0  0  0  0
   -0.0864    1.8643    0.0000 N   0  0  0  0  0  0  0  0  0  0  0  0
    0.1424    2.6570    0.0000 C   0  0  0  0  0  0  0  0  0  0  0  0
    0.9433    2.8551    0.0000 C   0  0  0  0  0  0  0  0  0  0  0  0
    1.7441    3.0533    0.0000 C   0  0  0  0  0  0  0  0  0  0  0  0
    2.5450    3.2515    0.0000 C   0  0  0  0  0  0  0  0  0  0  0  0
    2.7738    4.0441    0.0000 O   0  0  0  0  0  0  0  0  0  0  0  0
    3.4602    1.2699    0.0000 C   0  0  0  0  0  0  0  0  0  0  0  0
    4.2611    1.4680    0.0000 C   0  0  0  0  0  0  0  0  0  0  0  0
    8.2653    2.4588    0.0000 S   0  0  0  0  0  0  0  0  0  0  0  0
    8.8374    1.8643    0.0000 C   0  0  0  0  0  0  0  0  0  0  0  0
    7.6709    1.8868    0.0000 O   0  0  0  0  0  0  0  0  0  0  0  0
    8.8598    3.0309    0.0000 O   0  0  0  0  0  0  0  0  0  0  0  0
  1  2  1  0  0  0  0
  2  3  2  0  0  0  0
  3  4  1  0  0  0  0
  4  5  2  0  0  0  0
  5  6  1  0  0  0  0
  6  7  2  0  0  0  0
  2  7  1  0  0  0  0
  7  8  1  0  0  0  0
  8  9  1  0  0  0  0
  9 10  1  0  0  0  0
 10 11  2  0  0  0  0
 11 12  1  0  0  0  0
 12 13  2  0  0  0  0
 13 14  1  0  0  0  0
 14 15  2  0  0  0  0
 10 15  1  0  0  0  0
 13 16  1  0  0  0  0
 16 17  2  0  0  0  0
 17 18  1  0  0  0  0
 18 19  2  0  0  0  0
 19 20  1  0  0  0  0
 20 21  1  0  0  0  0
 21 22  1  0  0  0  0
 22 23  1  0  0  0  0
 23 24  1  0  0  0  0
 24 25  1  0  0  0  0
 25 26  1  0  0  0  0
 21 26  1  0  0  0  0
 21 27  1  0  0  0  0
 27 28  1  0  0  0  0
 18 28  1  0  0  0  0
 28 29  2  0  0  0  0
 19 30  1  0  0  0  0
 30 31  2  0  0  0  0
 16 31  1  0  0  0  0
  9 32  1  0  0  0  0
 32 33  1  0  0  0  0
 32 34  2  0  0  0  0
 32 35  2  0  0  0  0
M  END
> <ID>
CPD_3527

$$$$
CPD_3532
  Mrv1822 09091914012D          

 35 38  0  0  0  0            999 V2000
   -1.3222   -6.6616    0.0000 C   0  0  0  0  0  0  0  0  0  0  0  0
   -1.3222   -7.4866    0.0000 C   0  0  0  0  0  0  0  0  0  0  0  0
   -0.6548   -7.9715    0.0000 C   0  0  0  0  0  0  0  0  0  0  0  0
   -0.9097   -8.7562    0.0000 N   0  0  0  0  0  0  0  0  0  0  0  0
   -1.7347   -8.7562    0.0000 N   0  0  0  0  0  0  0  0  0  0  0  0
   -1.9897   -7.9715    0.0000 N   0  0  0  0  0  0  0  0  0  0  0  0
   -2.7743   -7.7166    0.0000 C   0  0  0  0  0  0  0  0  0  0  0  0
   -3.3874   -8.2686    0.0000 C   0  0  0  0  0  0  0  0  0  0  0  0
   -3.2159   -9.0756    0.0000 C   0  0  0  0  0  0  0  0  0  0  0  0
   -3.8290   -9.6276    0.0000 C   0  0  0  0  0  0  0  0  0  0  0  0
   -4.6136   -9.3727    0.0000 C   0  0  0  0  0  0  0  0  0  0  0  0
   -4.7851   -8.5657    0.0000 C   0  0  0  0  0  0  0  0  0  0  0  0
   -4.1720   -8.0137    0.0000 C   0  0  0  0  0  0  0  0  0  0  0  0
   -5.2267   -9.9247    0.0000 C   0  0  0  0  0  0  0  0  0  0  0  0
   -5.0551  -10.7317    0.0000 C   0  0  0  0  0  0  0  0  0  0  0  0
   -5.6682  -11.2837    0.0000 C   0  0  0  0  0  0  0  0  0  0  0  0
   -6.4529  -11.0288    0.0000 C   0  0  0  0  0  0  0  0  0  0  0  0
   -6.6244  -10.2218    0.0000 C   0  0  0  0  0  0  0  0  0  0  0  0
   -6.0113   -9.6698    0.0000 C   0  0  0  0  0  0  0  0  0  0  0  0
   -7.0660  -11.5808    0.0000 N   0  0  0  0  0  0  0  0  0  0  0  0
   -7.8506  -11.3259    0.0000 C   0  0  0  0  0  0  0  0  0  0  0  0
   -8.4637  -11.8779    0.0000 C   0  0  0  0  0  0  0  0  0  0  0  0
   -8.2921  -12.6849    0.0000 C   0  0  0  0  0  0  0  0  0  0  0  0
   -8.9052  -13.2369    0.0000 C   0  0  0  0  0  0  0  0  0  0  0  0
   -9.6899  -12.9820    0.0000 C   0  0  0  0  0  0  0  0  0  0  0  0
   -9.8614  -12.1750    0.0000 C   0  0  0  0  0  0  0  0  0  0  0  0
   -9.2483  -11.6230    0.0000 C   0  0  0  0  0  0  0  0  0  0  0  0
   -9.4198  -10.8160    0.0000 C   0  0  0  0  0  0  0  0  0  0  0  0
   -6.8944  -12.3878    0.0000 S   0  0  0  0  0  0  0  0  0  0  0  0
   -6.7229  -13.1948    0.0000 C   0  0  0  0  0  0  0  0  0  0  0  0
   -7.7014  -12.5593    0.0000 O   0  0  0  0  0  0  0  0  0  0  0  0
   -6.0875  -12.2163    0.0000 O   0  0  0  0  0  0  0  0  0  0  0  0
    0.1298   -7.7166    0.0000 C   0  0  0  0  0  0  0  0  0  0  0  0
    0.3014   -6.9096    0.0000 O   0  0  0  0  0  0  0  0  0  0  0  0
    0.7429   -8.2686    0.0000 O   0  0  0  0  0  0  0  0  0  0  0  0
  1  2  1  0  0  0  0
  2  3  2  0  0  0  0
  3  4  1  0  0  0  0
  4  5  2  0  0  0  0
  5  6  1  0  0  0  0
  2  6  1  0  0  0  0
  6  7  1  0  0  0  0
  7  8  1  0  0  0  0
  8  9  2  0  0  0  0
  9 10  1  0  0  0  0
 10 11  2  0  0  0  0
 11 12  1  0  0  0  0
 12 13  2  0  0  0  0
  8 13  1  0  0  0  0
 11 14  1  0  0  0  0
 14 15  2  0  0  0  0
 15 16  1  0  0  0  0
 16 17  2  0  0  0  0
 17 18  1  0  0  0  0
 18 19  2  0  0  0  0
 14 19  1  0  0  0  0
 17 20  1  0  0  0  0
 20 21  1  0  0  0  0
 21 22  1  0  0  0  0
 22 23  2  0  0  0  0
 23 24  1  0  0  0  0
 24 25  2  0  0  0  0
 25 26  1  0  0  0  0
 26 27  2  0  0  0  0
 22 27  1  0  0  0  0
 27 28  1  0  0  0  0
 20 29  1  0  0  0  0
 29 30  1  0  0  0  0
 29 31  2  0  0  0  0
 29 32  2  0  0  0  0
  3 33  1  0  0  0  0
 33 34  1  0  0  0  0
 33 35  2  0  0  0  0
M  END
> <ID>
CPD_3532

$$$$
CPD_3537
  Mrv1822 09091914012D          

 32 35  0  0  0  0            999 V2000
    0.0000   -6.6000    0.0000 C   0  0  0  0  0  0  0  0  0  0  0  0
    0.0000   -7.4250    0.0000 C   0  0  0  0  0  0  0  0  0  0  0  0
    0.6674   -7.9099    0.0000 C   0  0  0  0  0  0  0  0  0  0  0  0
    0.4125   -8.6945    0.0000 N   0  0  0  0  0  0  0  0  0  0  0  0
   -0.4125   -8.6945    0.0000 C   0  0  0  0  0  0  0  0  0  0  0  0
   -0.8974   -9.3620    0.0000 N   0  0  0  0  0  0  0  0  0  0  0  0
   -0.6674   -7.9099    0.0000 S   0  0  0  0  0  0  0  0  0  0  0  0
    1.4521   -7.6550    0.0000 C   0  0  0  0  0  0  0  0  0  0  0  0
    1.6236   -6.8480    0.0000 C   0  0  0  0  0  0  0  0  0  0  0  0
    2.4082   -6.5931    0.0000 C   0  0  0  0  0  0  0  0  0  0  0  0
    3.0213   -7.1451    0.0000 C   0  0  0  0  0  0  0  0  0  0  0  0
    2.8498   -7.9521    0.0000 C   0  0  0  0  0  0  0  0  0  0  0  0
    2.0652   -8.2070    0.0000 C   0  0  0  0  0  0  0  0  0  0  0  0
    3.8059   -6.8902    0.0000 C   0  0  0  0  0  0  0  0  0  0  0  0
    3.9775   -6.0832    0.0000 C   0  0  0  0  0  0  0  0  0  0  0  0
    4.7621   -5.8283    0.0000 C   0  0  0  0  0  0  0  0  0  0  0  0
    5.3752   -6.3803    0.0000 C   0  0  0  0  0  0  0  0  0  0  0  0
    5.2036   -7.1873    0.0000 C   0  0  0  0  0  0  0  0  0  0  0  0
    4.4190   -7.4422    0.0000 C   0  0  0  0  0  0  0  0  0  0  0  0
    6.1598   -6.1253    0.0000 N   0  0  0  0  0  0  0  0  0  0  0  0
    6.7729   -6.6774    0.0000 C   0  0  0  0  0  0  0  0  0  0  0  0
    7.5575   -6.4224    0.0000 C   0  0  0  0  0  0  0  0  0  0  0  0
    7.7290   -5.6155    0.0000 C   0  0  0  0  0  0  0  0  0  0  0  0
    8.5137   -5.3605    0.0000 C   0  0  0  0  0  0  0  0  0  0  0  0
    9.1267   -5.9126    0.0000 C   0  0  0  0  0  0  0  0  0  0  0  0
    8.9552   -6.7195    0.0000 C   0  0  0  0  0  0  0  0  0  0  0  0
    8.1706   -6.9745    0.0000 C   0  0  0  0  0  0  0  0  0  0  0  0
    7.9991   -7.7814    0.0000 C   0  0  0  0  0  0  0  0  0  0  0  0
    6.3313   -5.3184    0.0000 S   0  0  0  0  0  0  0  0  0  0  0  0
    7.1383   -5.4899    0.0000 C   0  0  0  0  0  0  0  0  0  0  0  0
    6.5028   -4.5114    0.0000 O   0  0  0  0  0  0  0  0  0  0  0  0
    5.5243   -5.1469    0.0000 O   0  0  0  0  0  0  0  0  0  0  0  0
  1  2  1  0  0  0  0
  2  3  2  0  0  0  0
  3  4  1  0  0  0  0
  4  5  2  0  0  0  0
  5  6  1  0  0  0  0
  5  7  1  0  0  0  0
  2  7  1  0  0  0  0
  3  8  1  0  0  0  0
  8  9  2  0  0  0  0
  9 10  1  0  0  0  0
 10 11  2  0  0  0  0
 11 12  1  0  0  0  0
 12 13  2  0  0  0  0
  8 13  1  0  0  0  0
 11 14  1  0  0  0  0
 14 15  2  0  0  0  0
 15 16  1  0  0  0  0
 16 17  2  0  0  0  0
 17 18  1  0  0  0  0
 18 19  2  0  0  0  0
 14 19  1  0  0  0  0
 17 20  1  0  0  0  0
 20 21  1  0  0  0  0
 21 22  1  0  0  0  0
 22 23  2  0  0  0  0
 23 24  1  0  0  0  0
 24 25  2  0  0  0  0
 25 26  1  0  0  0  0
 26 27  2  0  0  0  0
 22 27  1  0  0  0  0
 27 28  1  0  0  0  0
 20 29  1  0  0  0  0
 29 30  1  0  0  0  0
 29 31  2  0  0  0  0
 29 32  2  0  0  0  0
M  END
> <ID>
CPD_3537

$$$$
CPD_3542
  Mrv1822 09091914012D          

 31 34  0  0  0  0            999 V2000
    2.8579    0.8250    0.0000 C   0  0  0  0  0  0  0  0  0  0  0  0
    2.8579    0.0000    0.0000 C   0  0  0  0  0  0  0  0  0  0  0  0
    3.5724   -0.4125    0.0000 C   0  0  0  0  0  0  0  0  0  0  0  0
    2.1434   -0.4125    0.0000 N   0  0  0  0  0  0  0  0  0  0  0  0
    2.1434   -1.2375    0.0000 C   0  0  0  0  0  0  0  0  0  0  0  0
    2.8579   -1.6500    0.0000 O   0  0  0  0  0  0  0  0  0  0  0  0
    1.4289   -1.6500    0.0000 C   0  0  0  0  0  0  0  0  0  0  0  0
    1.4289   -2.4750    0.0000 C   0  0  0  0  0  0  0  0  0  0  0  0
    0.7145   -2.8875    0.0000 C   0  0  0  0  0  0  0  0  0  0  0  0
    0.0000   -2.4750    0.0000 C   0  0  0  0  0  0  0  0  0  0  0  0
    0.0000   -1.6500    0.0000 C   0  0  0  0  0  0  0  0  0  0  0  0
   -0.7145   -1.2375    0.0000 N   0  0  0  0  0  0  0  0  0  0  0  0
    0.7145   -1.2375    0.0000 C   0  0  0  0  0  0  0  0  0  0  0  0
    0.7145   -3.7125    0.0000 C   0  0  0  0  0  0  0  0  0  0  0  0
    1.3819   -4.1974    0.0000 C   0  0  0  0  0  0  0  0  0  0  0  0
    2.1665   -3.9425    0.0000 C   0  0  0  0  0  0  0  0  0  0  0  0
    1.1270   -4.9820    0.0000 N   0  0  0  0  0  0  0  0  0  0  0  0
    0.3020   -4.9820    0.0000 C   0  0  0  0  0  0  0  0  0  0  0  0
    0.0470   -4.1974    0.0000 S   0  0  0  0  0  0  0  0  0  0  0  0
   -0.1830   -5.6495    0.0000 C   0  0  0  0  0  0  0  0  0  0  0  0
    0.1526   -6.4032    0.0000 C   0  0  0  0  0  0  0  0  0  0  0  0
   -0.3323   -7.0706    0.0000 C   0  0  0  0  0  0  0  0  0  0  0  0
   -1.1528   -6.9844    0.0000 C   0  0  0  0  0  0  0  0  0  0  0  0
   -1.4884   -6.2307    0.0000 C   0  0  0  0  0  0  0  0  0  0  0  0
   -1.0034   -5.5632    0.0000 C   0  0  0  0  0  0  0  0  0  0  0  0
   -1.6377   -7.6518    0.0000 C   0  0  0  0  0  0  0  0  0  0  0  0
   -1.3022   -8.4055    0.0000 C   0  0  0  0  0  0  0  0  0  0  0  0
   -1.7871   -9.0729    0.0000 C   0  0  0  0  0  0  0  0  0  0  0  0
   -2.6076   -8.9867    0.0000 C   0  0  0  0  0  0  0  0  0  0  0  0
   -2.9431   -8.2330    0.0000 C   0  0  0  0  0  0  0  0  0  0  0  0
   -2.4582   -7.5656    0.0000 C   0  0  0  0  0  0  0  0  0  0  0  0
  1  2  1  0  0  0  0
  2  3  1  0  0  0  0
  2  4  1  0  0  0  0
  4  5  1  0  0  0  0
  5  6  2  0  0  0  0
  5  7  1  0  0  0  0
  7  8  2  0  0  0  0
  8  9  1  0  0  0  0
  9 10  2  0  0  0  0
 10 11  1  0  0  0  0
 11 12  1  0  0  0  0
 11 13  2  0  0  0  0
  7 13  1  0  0  0  0
  9 14  1  0  0  0  0
 14 15  2  0  0  0  0
 15 16  1  0  0  0  0
 15 17  1  0  0  0  0
 17 18  2  0  0  0  0
 18 19  1  0  0  0  0
 14 19  1  0  0  0  0
 18 20  1  0  0  0  0
 20 21  2  0  0  0  0
 21 22  1  0  0  0  0
 22 23  2  0  0  0  0
 23 24  1  0  0  0  0
 24 25  2  0  0  0  0
 20 25  1  0  0  0  0
 23 26  1  0  0  0  0
 26 27  2  0  0  0  0
 27 28  1  0  0  0  0
 28 29  2  0  0  0  0
 29 30  1  0  0  0  0
 30 31  2  0  0  0  0
 26 31  1  0  0  0  0
M  END
> <ID>
CPD_3542

$$$$
CPD_3547
  Mrv1822 09091914012D          

 27 32  0  0  0  0            999 V2000
   11.6513    3.2613    0.0000 C   0  0  0  0  0  0  0  0  0  0  0  0
   11.9062    4.0459    0.0000 O   0  0  0  0  0  0  0  0  0  0  0  0
   11.3542    4.6590    0.0000 C   0  0  0  0  0  0  0  0  0  0  0  0
   11.6091    5.4436    0.0000 C   0  0  0  0  0  0  0  0  0  0  0  0
   11.0571    6.0567    0.0000 C   0  0  0  0  0  0  0  0  0  0  0  0
   10.2501    5.8852    0.0000 C   0  0  0  0  0  0  0  0  0  0  0  0
    9.9952    5.1006    0.0000 C   0  0  0  0  0  0  0  0  0  0  0  0
   10.5472    4.4875    0.0000 C   0  0  0  0  0  0  0  0  0  0  0  0
   10.2923    3.7029    0.0000 C   0  0  0  0  0  0  0  0  0  0  0  0
   10.8443    3.0898    0.0000 C   0  0  0  0  0  0  0  0  0  0  0  0
   10.5893    2.3052    0.0000 C   0  0  0  0  0  0  0  0  0  0  0  0
    9.7824    2.1336    0.0000 N   0  0  0  0  0  0  0  0  0  0  0  0
    9.2303    2.7467    0.0000 C   0  0  0  0  0  0  0  0  0  0  0  0
    9.4853    3.5314    0.0000 N   0  0  0  0  0  0  0  0  0  0  0  0
    8.4234    2.5752    0.0000 C   0  0  0  0  0  0  0  0  0  0  0  0
    7.8713    3.1883    0.0000 C   0  0  0  0  0  0  0  0  0  0  0  0
    7.0644    3.0168    0.0000 C   0  0  0  0  0  0  0  0  0  0  0  0
    6.8094    2.2321    0.0000 C   0  0  0  0  0  0  0  0  0  0  0  0
    7.3615    1.6191    0.0000 C   0  0  0  0  0  0  0  0  0  0  0  0
    8.1684    1.7906    0.0000 C   0  0  0  0  0  0  0  0  0  0  0  0
    5.9844    2.2321    0.0000 C   0  0  0  0  0  0  0  0  0  0  0  0
    5.4324    1.6191    0.0000 C   0  0  0  0  0  0  0  0  0  0  0  0
    4.6254    1.7906    0.0000 C   0  0  0  0  0  0  0  0  0  0  0  0
    4.3705    2.5752    0.0000 C   0  0  0  0  0  0  0  0  0  0  0  0
    4.9225    3.1883    0.0000 C   0  0  0  0  0  0  0  0  0  0  0  0
    5.7295    3.0168    0.0000 C   0  0  0  0  0  0  0  0  0  0  0  0
    6.3969    3.5017    0.0000 O   0  0  0  0  0  0  0  0  0  0  0  0
  1  2  1  0  0  0  0
  2  3  1  0  0  0  0
  3  4  2  0  0  0  0
  4  5  1  0  0  0  0
  5  6  2  0  0  0  0
  6  7  1  0  0  0  0
  7  8  2  0  0  0  0
  3  8  1  0  0  0  0
  8  9  1  0  0  0  0
  9 10  2  0  0  0  0
  1 10  1  0  0  0  0
 10 11  1  0  0  0  0
 11 12  2  0  0  0  0
 12 13  1  0  0  0  0
 13 14  2  0  0  0  0
  9 14  1  0  0  0  0
 13 15  1  0  0  0  0
 15 16  2  0  0  0  0
 16 17  1  0  0  0  0
 17 18  2  0  0  0  0
 18 19  1  0  0  0  0
 19 20  2  0  0  0  0
 15 20  1  0  0  0  0
 18 21  1  0  0  0  0
 21 22  2  0  0  0  0
 22 23  1  0  0  0  0
 23 24  2  0  0  0  0
 24 25  1  0  0  0  0
 25 26  2  0  0  0  0
 21 26  1  0  0  0  0
 26 27  1  0  0  0  0
 17 27  1  0  0  0  0
M  END
> <ID>
CPD_3547

$$$$
CPD_3552
  Mrv1822 09091914012D          

 25 29  0  0  0  0            999 V2000
    2.9321   -4.5220    0.0000 F   0  0  0  0  0  0  0  0  0  0  0  0
    2.4975   -3.8207    0.0000 C   0  0  0  0  0  0  0  0  0  0  0  0
    2.8875   -3.0937    0.0000 C   0  0  0  0  0  0  0  0  0  0  0  0
    2.4529   -2.3925    0.0000 C   0  0  0  0  0  0  0  0  0  0  0  0
    1.6283   -2.4182    0.0000 C   0  0  0  0  0  0  0  0  0  0  0  0
    1.2383   -3.1452    0.0000 C   0  0  0  0  0  0  0  0  0  0  0  0
    1.6729   -3.8465    0.0000 C   0  0  0  0  0  0  0  0  0  0  0  0
    0.4137   -3.1710    0.0000 N   0  0  0  0  0  0  0  0  0  0  0  0
   -0.0209   -2.4698    0.0000 C   0  0  0  0  0  0  0  0  0  0  0  0
    0.3691   -1.7427    0.0000 C   0  0  0  0  0  0  0  0  0  0  0  0
   -0.0655   -1.0415    0.0000 Br  0  0  0  0  0  0  0  0  0  0  0  0
    1.1937   -1.7170    0.0000 C   0  0  0  0  0  0  0  0  0  0  0  0
    1.5837   -0.9900    0.0000 C   0  0  0  0  0  0  0  0  0  0  0  0
    2.4083   -0.9642    0.0000 C   0  0  0  0  0  0  0  0  0  0  0  0
    2.7983   -0.2372    0.0000 C   0  0  0  0  0  0  0  0  0  0  0  0
    3.5995   -0.0406    0.0000 N   0  0  0  0  0  0  0  0  0  0  0  0
    3.6601    0.7822    0.0000 N   0  0  0  0  0  0  0  0  0  0  0  0
    2.8963    1.0941    0.0000 N   0  0  0  0  0  0  0  0  0  0  0  0
    2.3637    0.4640    0.0000 N   0  0  0  0  0  0  0  0  0  0  0  0
    1.5391    0.4383    0.0000 C   0  0  0  0  0  0  0  0  0  0  0  0
    1.1491   -0.2887    0.0000 C   0  0  0  0  0  0  0  0  0  0  0  0
    0.3245   -0.3145    0.0000 C   0  0  0  0  0  0  0  0  0  0  0  0
   -0.1101    0.3867    0.0000 C   0  0  0  0  0  0  0  0  0  0  0  0
    0.2799    1.1137    0.0000 C   0  0  0  0  0  0  0  0  0  0  0  0
    1.1045    1.1395    0.0000 C   0  0  0  0  0  0  0  0  0  0  0  0
  1  2  1  0  0  0  0
  2  3  2  0  0  0  0
  3  4  1  0  0  0  0
  4  5  2  0  0  0  0
  5  6  1  0  0  0  0
  6  7  2  0  0  0  0
  2  7  1  0  0  0  0
  6  8  1  0  0  0  0
  8  9  2  0  0  0  0
  9 10  1  0  0  0  0
 10 11  1  0  0  0  0
 10 12  2  0  0  0  0
  5 12  1  0  0  0  0
 12 13  1  0  0  0  0
 13 14  2  0  0  0  0
 14 15  1  0  0  0  0
 15 16  2  0  0  0  0
 16 17  1  0  0  0  0
 17 18  2  0  0  0  0
 18 19  1  0  0  0  0
 15 19  1  0  0  0  0
 19 20  1  0  0  0  0
 20 21  2  0  0  0  0
 13 21  1  0  0  0  0
 21 22  1  0  0  0  0
 22 23  2  0  0  0  0
 23 24  1  0  0  0  0
 24 25  2  0  0  0  0
 20 25  1  0  0  0  0
M  END
> <ID>
CPD_3552

$$$$
CPD_3557
  Mrv1822 09091914012D          

 24 27  0  0  0  0            999 V2000
    0.0237   -3.8980    0.0000 F   0  0  0  0  0  0  0  0  0  0  0  0
    0.4137   -3.1710    0.0000 C   0  0  0  0  0  0  0  0  0  0  0  0
   -0.0209   -2.4698    0.0000 C   0  0  0  0  0  0  0  0  0  0  0  0
   -0.8455   -2.4955    0.0000 Cl  0  0  0  0  0  0  0  0  0  0  0  0
    0.3691   -1.7427    0.0000 C   0  0  0  0  0  0  0  0  0  0  0  0
   -0.0655   -1.0415    0.0000 F   0  0  0  0  0  0  0  0  0  0  0  0
    1.1937   -1.7170    0.0000 C   0  0  0  0  0  0  0  0  0  0  0  0
    1.6283   -2.4182    0.0000 C   0  0  0  0  0  0  0  0  0  0  0  0
    2.4529   -2.3925    0.0000 F   0  0  0  0  0  0  0  0  0  0  0  0
    1.2383   -3.1452    0.0000 C   0  0  0  0  0  0  0  0  0  0  0  0
    1.6729   -3.8465    0.0000 Cl  0  0  0  0  0  0  0  0  0  0  0  0
    1.5837   -0.9900    0.0000 C   0  0  0  0  0  0  0  0  0  0  0  0
    2.4083   -0.9642    0.0000 C   0  0  0  0  0  0  0  0  0  0  0  0
    2.7983   -0.2372    0.0000 C   0  0  0  0  0  0  0  0  0  0  0  0
    3.5995   -0.0406    0.0000 N   0  0  0  0  0  0  0  0  0  0  0  0
    3.6601    0.7822    0.0000 N   0  0  0  0  0  0  0  0  0  0  0  0
    2.8963    1.0941    0.0000 N   0  0  0  0  0  0  0  0  0  0  0  0
    2.3637    0.4640    0.0000 N   0  0  0  0  0  0  0  0  0  0  0  0
    1.5391    0.4383    0.0000 C   0  0  0  0  0  0  0  0  0  0  0  0
    1.1491   -0.2887    0.0000 C   0  0  0  0  0  0  0  0  0  0  0  0
    0.3245   -0.3145    0.0000 C   0  0  0  0  0  0  0  0  0  0  0  0
   -0.1101    0.3867    0.0000 C   0  0  0  0  0  0  0  0  0  0  0  0
    0.2799    1.1137    0.0000 C   0  0  0  0  0  0  0  0  0  0  0  0
    1.1045    1.1395    0.0000 C   0  0  0  0  0  0  0  0  0  0  0  0
  1  2  1  0  0  0  0
  2  3  2  0  0  0  0
  3  4  1  0  0  0  0
  3  5  1  0  0  0  0
  5  6  1  0  0  0  0
  5  7  2  0  0  0  0
  7  8  1  0  0  0  0
  8  9  1  0  0  0  0
  8 10  2  0  0  0  0
  2 10  1  0  0  0  0
 10 11  1  0  0  0  0
  7 12  1  0  0  0  0
 12 13  2  0  0  0  0
 13 14  1  0  0  0  0
 14 15  2  0  0  0  0
 15 16  1  0  0  0  0
 16 17  2  0  0  0  0
 17 18  1  0  0  0  0
 14 18  1  0  0  0  0
 18 19  1  0  0  0  0
 19 20  2  0  0  0  0
 12 20  1  0  0  0  0
 20 21  1  0  0  0  0
 21 22  2  0  0  0  0
 22 23  1  0  0  0  0
 23 24  2  0  0  0  0
 19 24  1  0  0  0  0
M  END
> <ID>
CPD_3557

$$$$
CPD_3562
  Mrv1822 09091914012D          

 23 26  0  0  0  0            999 V2000
    2.8875   -3.0937    0.0000 C   0  0  0  0  0  0  0  0  0  0  0  0
    2.4529   -2.3925    0.0000 C   0  0  0  0  0  0  0  0  0  0  0  0
    2.8429   -1.6655    0.0000 O   0  0  0  0  0  0  0  0  0  0  0  0
    1.6283   -2.4182    0.0000 C   0  0  0  0  0  0  0  0  0  0  0  0
    1.1937   -1.7170    0.0000 C   0  0  0  0  0  0  0  0  0  0  0  0
    0.3691   -1.7427    0.0000 C   0  0  0  0  0  0  0  0  0  0  0  0
   -0.0209   -2.4698    0.0000 C   0  0  0  0  0  0  0  0  0  0  0  0
    0.4137   -3.1710    0.0000 C   0  0  0  0  0  0  0  0  0  0  0  0
    0.0237   -3.8980    0.0000 Cl  0  0  0  0  0  0  0  0  0  0  0  0
    1.2383   -3.1452    0.0000 C   0  0  0  0  0  0  0  0  0  0  0  0
    1.5837   -0.9900    0.0000 C   0  0  0  0  0  0  0  0  0  0  0  0
    2.4083   -0.9642    0.0000 C   0  0  0  0  0  0  0  0  0  0  0  0
    2.7983   -0.2372    0.0000 C   0  0  0  0  0  0  0  0  0  0  0  0
    3.5995   -0.0406    0.0000 N   0  0  0  0  0  0  0  0  0  0  0  0
    3.6601    0.7822    0.0000 N   0  0  0  0  0  0  0  0  0  0  0  0
    2.8963    1.0941    0.0000 N   0  0  0  0  0  0  0  0  0  0  0  0
    2.3637    0.4640    0.0000 N   0  0  0  0  0  0  0  0  0  0  0  0
    1.5391    0.4383    0.0000 C   0  0  0  0  0  0  0  0  0  0  0  0
    1.1491   -0.2887    0.0000 C   0  0  0  0  0  0  0  0  0  0  0  0
    0.3245   -0.3145    0.0000 C   0  0  0  0  0  0  0  0  0  0  0  0
   -0.1101    0.3867    0.0000 C   0  0  0  0  0  0  0  0  0  0  0  0
    0.2799    1.1137    0.0000 C   0  0  0  0  0  0  0  0  0  0  0  0
    1.1045    1.1395    0.0000 C   0  0  0  0  0  0  0  0  0  0  0  0
  1  2  1  0  0  0  0
  2  3  2  0  0  0  0
  2  4  1  0  0  0  0
  4  5  2  0  0  0  0
  5  6  1  0  0  0  0
  6  7  2  0  0  0  0
  7  8  1  0  0  0  0
  8  9  1  0  0  0  0
  8 10  2  0  0  0  0
  4 10  1  0  0  0  0
  5 11  1  0  0  0  0
 11 12  2  0  0  0  0
 12 13  1  0  0  0  0
 13 14  2  0  0  0  0
 14 15  1  0  0  0  0
 15 16  2  0  0  0  0
 16 17  1  0  0  0  0
 13 17  1  0  0  0  0
 17 18  1  0  0  0  0
 18 19  2  0  0  0  0
 11 19  1  0  0  0  0
 19 20  1  0  0  0  0
 20 21  2  0  0  0  0
 21 22  1  0  0  0  0
 22 23  2  0  0  0  0
 18 23  1  0  0  0  0
M  END
> <ID>
CPD_3562

$$$$
CPD_3567
  Mrv1822 09091914012D          

 29 32  0  0  0  0            999 V2000
   -5.0013   -7.0125    0.0000 C   0  0  0  0  0  0  0  0  0  0  0  0
   -5.0013   -6.1875    0.0000 C   0  0  0  0  0  0  0  0  0  0  0  0
   -4.1763   -6.1875    0.0000 C   0  0  0  0  0  0  0  0  0  0  0  0
   -5.8263   -6.1875    0.0000 C   0  0  0  0  0  0  0  0  0  0  0  0
   -5.0013   -5.3625    0.0000 O   0  0  0  0  0  0  0  0  0  0  0  0
   -4.2868   -4.9500    0.0000 C   0  0  0  0  0  0  0  0  0  0  0  0
   -3.5724   -5.3625    0.0000 O   0  0  0  0  0  0  0  0  0  0  0  0
   -4.2868   -4.1250    0.0000 N   0  0  0  0  0  0  0  0  0  0  0  0
   -5.0013   -3.7125    0.0000 C   0  0  0  0  0  0  0  0  0  0  0  0
   -5.0013   -2.8875    0.0000 C   0  0  0  0  0  0  0  0  0  0  0  0
   -4.2868   -2.4750    0.0000 N   0  0  0  0  0  0  0  0  0  0  0  0
   -3.5724   -2.8875    0.0000 C   0  0  0  0  0  0  0  0  0  0  0  0
   -3.5724   -3.7125    0.0000 C   0  0  0  0  0  0  0  0  0  0  0  0
   -2.8579   -2.4750    0.0000 C   0  0  0  0  0  0  0  0  0  0  0  0
   -2.8579   -1.6500    0.0000 C   0  0  0  0  0  0  0  0  0  0  0  0
   -2.1434   -1.2375    0.0000 C   0  0  0  0  0  0  0  0  0  0  0  0
   -1.4289   -1.6500    0.0000 C   0  0  0  0  0  0  0  0  0  0  0  0
   -1.4289   -2.4750    0.0000 C   0  0  0  0  0  0  0  0  0  0  0  0
   -2.1434   -2.8875    0.0000 C   0  0  0  0  0  0  0  0  0  0  0  0
   -0.7145   -1.2375    0.0000 C   0  0  0  0  0  0  0  0  0  0  0  0
    0.0000   -1.6500    0.0000 C   0  0  0  0  0  0  0  0  0  0  0  0
    0.7145   -1.2375    0.0000 C   0  0  0  0  0  0  0  0  0  0  0  0
    0.7145   -0.4125    0.0000 C   0  0  0  0  0  0  0  0  0  0  0  0
    1.4289   -0.0000    0.0000 N   0  0  0  0  0  0  0  0  0  0  0  0
    2.1434   -0.4125    0.0000 C   0  0  0  0  0  0  0  0  0  0  0  0
    2.1434   -1.2375    0.0000 C   0  0  0  0  0  0  0  0  0  0  0  0
    1.4289   -1.6500    0.0000 O   0  0  0  0  0  0  0  0  0  0  0  0
    0.0000   -0.0000    0.0000 N   0  0  0  0  0  0  0  0  0  0  0  0
   -0.7145   -0.4125    0.0000 C   0  0  0  0  0  0  0  0  0  0  0  0
  1  2  1  0  0  0  0
  2  3  1  0  0  0  0
  2  4  1  0  0  0  0
  2  5  1  0  0  0  0
  5  6  1  0  0  0  0
  6  7  2  0  0  0  0
  6  8  1  0  0  0  0
  8  9  1  0  0  0  0
  9 10  1  0  0  0  0
 10 11  1  0  0  0  0
 11 12  1  0  0  0  0
 12 13  1  0  0  0  0
  8 13  1  0  0  0  0
 12 14  1  0  0  0  0
 14 15  2  0  0  0  0
 15 16  1  0  0  0  0
 16 17  2  0  0  0  0
 17 18  1  0  0  0  0
 18 19  2  0  0  0  0
 14 19  1  0  0  0  0
 17 20  1  0  0  0  0
 20 21  2  0  0  0  0
 21 22  1  0  0  0  0
 22 23  2  0  0  0  0
 23 24  1  0  0  0  0
 24 25  1  0  0  0  0
 25 26  1  0  0  0  0
 26 27  1  0  0  0  0
 22 27  1  0  0  0  0
 23 28  1  0  0  0  0
 28 29  2  0  0  0  0
 20 29  1  0  0  0  0
M  END
> <ID>
CPD_3567

$$$$
CPD_3572
  Mrv1822 09091914012D          

 36 39  0  0  0  0            999 V2000
    7.8592   -2.0625    0.0000 C   0  0  0  0  0  0  0  0  0  0  0  0
    7.8592   -2.8875    0.0000 C   0  0  0  0  0  0  0  0  0  0  0  0
    7.0342   -2.8875    0.0000 C   0  0  0  0  0  0  0  0  0  0  0  0
    8.6842   -2.8875    0.0000 C   0  0  0  0  0  0  0  0  0  0  0  0
    7.8592   -3.7125    0.0000 O   0  0  0  0  0  0  0  0  0  0  0  0
    7.1447   -4.1250    0.0000 C   0  0  0  0  0  0  0  0  0  0  0  0
    6.4302   -3.7125    0.0000 O   0  0  0  0  0  0  0  0  0  0  0  0
    7.1447   -4.9500    0.0000 N   0  0  0  0  0  0  0  0  0  0  0  0
    7.8592   -5.3625    0.0000 C   0  0  0  0  0  0  0  0  0  0  0  0
    7.8592   -6.1875    0.0000 C   0  0  0  0  0  0  0  0  0  0  0  0
    7.1447   -6.6000    0.0000 N   0  0  0  0  0  0  0  0  0  0  0  0
    6.4302   -6.1875    0.0000 C   0  0  0  0  0  0  0  0  0  0  0  0
    6.4302   -5.3625    0.0000 C   0  0  0  0  0  0  0  0  0  0  0  0
    5.7158   -6.6000    0.0000 C   0  0  0  0  0  0  0  0  0  0  0  0
    5.7158   -7.4250    0.0000 C   0  0  0  0  0  0  0  0  0  0  0  0
    5.0013   -7.8375    0.0000 C   0  0  0  0  0  0  0  0  0  0  0  0
    4.2868   -7.4250    0.0000 C   0  0  0  0  0  0  0  0  0  0  0  0
    4.2868   -6.6000    0.0000 C   0  0  0  0  0  0  0  0  0  0  0  0
    5.0013   -6.1875    0.0000 C   0  0  0  0  0  0  0  0  0  0  0  0
    3.5724   -7.8375    0.0000 C   0  0  0  0  0  0  0  0  0  0  0  0
    3.5724   -8.6625    0.0000 C   0  0  0  0  0  0  0  0  0  0  0  0
    2.8579   -9.0750    0.0000 C   0  0  0  0  0  0  0  0  0  0  0  0
    2.1434   -8.6625    0.0000 C   0  0  0  0  0  0  0  0  0  0  0  0
    2.1434   -7.8375    0.0000 C   0  0  0  0  0  0  0  0  0  0  0  0
    2.8579   -7.4250    0.0000 C   0  0  0  0  0  0  0  0  0  0  0  0
    1.4289   -9.0750    0.0000 C   0  0  0  0  0  0  0  0  0  0  0  0
    0.7145   -8.6625    0.0000 N   0  0  0  0  0  0  0  0  0  0  0  0
   -0.0000   -9.0750    0.0000 C   0  0  0  0  0  0  0  0  0  0  0  0
   -0.7145   -8.6625    0.0000 C   0  0  0  0  0  0  0  0  0  0  0  0
   -1.4289   -9.0750    0.0000 C   0  0  0  0  0  0  0  0  0  0  0  0
   -2.1434   -8.6625    0.0000 C   0  0  0  0  0  0  0  0  0  0  0  0
   -2.1434   -7.8375    0.0000 C   0  0  0  0  0  0  0  0  0  0  0  0
   -1.4289   -7.4250    0.0000 C   0  0  0  0  0  0  0  0  0  0  0  0
   -0.7145   -7.8375    0.0000 C   0  0  0  0  0  0  0  0  0  0  0  0
    1.4289   -9.9000    0.0000 C   0  0  0  0  0  0  0  0  0  0  0  0
    1.4289  -10.7250    0.0000 N   0  0  0  0  0  0  0  0  0  0  0  0
  1  2  1  0  0  0  0
  2  3  1  0  0  0  0
  2  4  1  0  0  0  0
  2  5  1  0  0  0  0
  5  6  1  0  0  0  0
  6  7  2  0  0  0  0
  6  8  1  0  0  0  0
  8  9  1  0  0  0  0
  9 10  1  0  0  0  0
 10 11  1  0  0  0  0
 11 12  1  0  0  0  0
 12 13  1  0  0  0  0
  8 13  1  0  0  0  0
 12 14  1  0  0  0  0
 14 15  2  0  0  0  0
 15 16  1  0  0  0  0
 16 17  2  0  0  0  0
 17 18  1  0  0  0  0
 18 19  2  0  0  0  0
 14 19  1  0  0  0  0
 17 20  1  0  0  0  0
 20 21  2  0  0  0  0
 21 22  1  0  0  0  0
 22 23  2  0  0  0  0
 23 24  1  0  0  0  0
 24 25  2  0  0  0  0
 20 25  1  0  0  0  0
 23 26  1  0  0  0  0
 26 27  1  0  0  0  0
 27 28  1  0  0  0  0
 28 29  1  0  0  0  0
 29 30  2  0  0  0  0
 30 31  1  0  0  0  0
 31 32  2  0  0  0  0
 32 33  1  0  0  0  0
 33 34  2  0  0  0  0
 29 34  1  0  0  0  0
 26 35  1  0  0  0  0
 35 36  3  0  0  0  0
M  END
> <ID>
CPD_3572

$$$$
CPD_3577
  Mrv1822 09091914012D          

 38 42  0  0  0  0            999 V2000
   -2.4258   -2.6416    0.0000 C   0  0  0  0  0  0  0  0  0  0  0  0
   -1.6780   -2.2932    0.0000 O   0  0  0  0  0  0  0  0  0  0  0  0
   -1.6058   -1.4713    0.0000 C   0  0  0  0  0  0  0  0  0  0  0  0
   -2.2815   -0.9979    0.0000 O   0  0  0  0  0  0  0  0  0  0  0  0
   -0.8580   -1.1229    0.0000 C   0  0  0  0  0  0  0  0  0  0  0  0
   -0.7859   -0.3010    0.0000 O   0  0  0  0  0  0  0  0  0  0  0  0
   -0.0381    0.0474    0.0000 C   0  0  0  0  0  0  0  0  0  0  0  0
    0.0341    0.8693    0.0000 C   0  0  0  0  0  0  0  0  0  0  0  0
    0.7819    1.2177    0.0000 C   0  0  0  0  0  0  0  0  0  0  0  0
    1.4575    0.7443    0.0000 C   0  0  0  0  0  0  0  0  0  0  0  0
    1.3854   -0.0775    0.0000 C   0  0  0  0  0  0  0  0  0  0  0  0
    0.6376   -0.4260    0.0000 C   0  0  0  0  0  0  0  0  0  0  0  0
    0.8227    0.1099    0.0000 C   0  0  0  0  0  0  0  0  0  0  0  0
    1.4983   -0.3635    0.0000 C   0  0  0  0  0  0  0  0  0  0  0  0
    2.2461   -0.0151    0.0000 C   0  0  0  0  0  0  0  0  0  0  0  0
    2.3183    0.8068    0.0000 C   0  0  0  0  0  0  0  0  0  0  0  0
    1.6426    1.2802    0.0000 C   0  0  0  0  0  0  0  0  0  0  0  0
    0.8948    0.9317    0.0000 C   0  0  0  0  0  0  0  0  0  0  0  0
    2.0611   -0.5509    0.0000 C   0  0  0  0  0  0  0  0  0  0  0  0
    2.8089   -0.2025    0.0000 C   0  0  0  0  0  0  0  0  0  0  0  0
    3.4845   -0.6759    0.0000 C   0  0  0  0  0  0  0  0  0  0  0  0
    3.4124   -1.4977    0.0000 C   0  0  0  0  0  0  0  0  0  0  0  0
    4.0880   -1.9711    0.0000 F   0  0  0  0  0  0  0  0  0  0  0  0
    2.6646   -1.8462    0.0000 C   0  0  0  0  0  0  0  0  0  0  0  0
    1.9889   -1.3728    0.0000 C   0  0  0  0  0  0  0  0  0  0  0  0
    1.2411   -1.7212    0.0000 F   0  0  0  0  0  0  0  0  0  0  0  0
    2.2053    1.0927    0.0000 C   0  0  0  0  0  0  0  0  0  0  0  0
    2.9942    0.8513    0.0000 O   0  0  0  0  0  0  0  0  0  0  0  0
    2.5279    1.8521    0.0000 O   0  0  0  0  0  0  0  0  0  0  0  0
   -0.6416    1.3426    0.0000 C   0  0  0  0  0  0  0  0  0  0  0  0
   -1.3894    0.9942    0.0000 O   0  0  0  0  0  0  0  0  0  0  0  0
   -0.5695    2.1645    0.0000 N   0  0  0  0  0  0  0  0  0  0  0  0
    0.1783    2.5129    0.0000 C   0  0  0  0  0  0  0  0  0  0  0  0
    0.2505    3.3348    0.0000 C   0  0  0  0  0  0  0  0  0  0  0  0
    0.9983    3.6832    0.0000 C   0  0  0  0  0  0  0  0  0  0  0  0
    1.6740    3.2098    0.0000 C   0  0  0  0  0  0  0  0  0  0  0  0
    1.6018    2.3880    0.0000 C   0  0  0  0  0  0  0  0  0  0  0  0
    0.8540    2.0395    0.0000 C   0  0  0  0  0  0  0  0  0  0  0  0
  1  2  1  0  0  0  0
  2  3  1  0  0  0  0
  3  4  2  0  0  0  0
  3  5  1  0  0  0  0
  5  6  1  0  0  0  0
  6  7  1  0  0  0  0
  7  8  2  0  0  0  0
  8  9  1  0  0  0  0
  9 10  1  0  0  0  0
 10 11  1  0  0  0  0
 11 12  1  0  0  0  0
  7 12  1  0  0  0  0
 12 13  1  0  0  0  0
 13 14  4  0  0  0  0
 14 15  4  0  0  0  0
 15 16  4  0  0  0  0
 16 17  4  0  0  0  0
 17 18  4  0  0  0  0
  9 18  1  0  0  0  0
 13 18  4  0  0  0  0
 11 19  1  0  0  0  0
 19 20  4  0  0  0  0
 20 21  4  0  0  0  0
 21 22  4  0  0  0  0
 22 23  1  0  0  0  0
 22 24  4  0  0  0  0
 24 25  4  0  0  0  0
 19 25  4  0  0  0  0
 25 26  1  0  0  0  0
 10 27  1  0  0  0  0
 27 28  1  0  0  0  0
 27 29  2  0  0  0  0
  8 30  1  0  0  0  0
 30 31  2  0  0  0  0
 30 32  1  0  0  0  0
 32 33  1  0  0  0  0
 33 34  4  0  0  0  0
 34 35  4  0  0  0  0
 35 36  4  0  0  0  0
 36 37  4  0  0  0  0
 37 38  4  0  0  0  0
 33 38  4  0  0  0  0
M  END
> <ID>
CPD_3577

$$$$
CPD_3582
  Mrv1822 09091914012D          

 33 37  0  0  0  0            999 V2000
    5.2347    4.3898    0.0000 C   0  0  0  0  0  0  0  0  0  0  0  0
    5.8730    3.8354    0.0000 O   0  0  0  0  0  0  0  0  0  0  0  0
    5.7791    2.9853    0.0000 C   0  0  0  0  0  0  0  0  0  0  0  0
    6.5670    2.6444    0.0000 O   0  0  0  0  0  0  0  0  0  0  0  0
    4.9955    2.5762    0.0000 C   0  0  0  0  0  0  0  0  0  0  0  0
    4.8470    1.6693    0.0000 O   0  0  0  0  0  0  0  0  0  0  0  0
    4.2833    0.8430    0.0000 C   0  0  0  0  0  0  0  0  0  0  0  0
    4.3734   -0.0638    0.0000 C   0  0  0  0  0  0  0  0  0  0  0  0
    3.5792   -0.4005    0.0000 C   0  0  0  0  0  0  0  0  0  0  0  0
    3.4371    0.1484    0.0000 C   0  0  0  0  0  0  0  0  0  0  0  0
    3.4325    0.6984    0.0000 C   0  0  0  0  0  0  0  0  0  0  0  0
    3.5654    1.2495    0.0000 C   0  0  0  0  0  0  0  0  0  0  0  0
    2.8544    0.8310    0.0000 C   0  0  0  0  0  0  0  0  0  0  0  0
    2.1365    1.2375    0.0000 C   0  0  0  0  0  0  0  0  0  0  0  0
    1.4255    0.8190    0.0000 C   0  0  0  0  0  0  0  0  0  0  0  0
    1.4324   -0.0060    0.0000 C   0  0  0  0  0  0  0  0  0  0  0  0
    2.1504   -0.4125    0.0000 C   0  0  0  0  0  0  0  0  0  0  0  0
    2.8613    0.0060    0.0000 C   0  0  0  0  0  0  0  0  0  0  0  0
    4.2551    0.2561    0.0000 N   0  0  0  0  0  0  0  0  0  0  0  0
    4.7398   -0.2606    0.0000 C   0  0  0  0  0  0  0  0  0  0  0  0
    5.4040   -0.1536    0.0000 C   0  0  0  0  0  0  0  0  0  0  0  0
    5.4599    0.8307    0.0000 C   0  0  0  0  0  0  0  0  0  0  0  0
    4.6487    0.9811    0.0000 C   0  0  0  0  0  0  0  0  0  0  0  0
    4.1330    1.7565    0.0000 O   0  0  0  0  0  0  0  0  0  0  0  0
    5.1054   -0.7724    0.0000 C   0  0  0  0  0  0  0  0  0  0  0  0
    5.9701   -0.3258    0.0000 O   0  0  0  0  0  0  0  0  0  0  0  0
    5.2557   -1.6673    0.0000 N   0  0  0  0  0  0  0  0  0  0  0  0
    6.0916   -1.9288    0.0000 C   0  0  0  0  0  0  0  0  0  0  0  0
    6.6638   -1.3345    0.0000 C   0  0  0  0  0  0  0  0  0  0  0  0
    7.4646   -1.5329    0.0000 C   0  0  0  0  0  0  0  0  0  0  0  0
    7.6932   -2.3256    0.0000 C   0  0  0  0  0  0  0  0  0  0  0  0
    7.1209   -2.9199    0.0000 C   0  0  0  0  0  0  0  0  0  0  0  0
    6.3202   -2.7215    0.0000 C   0  0  0  0  0  0  0  0  0  0  0  0
  1  2  1  0  0  0  0
  2  3  1  0  0  0  0
  3  4  2  0  0  0  0
  3  5  1  0  0  0  0
  5  6  1  0  0  0  0
  6  7  1  0  0  0  0
  7  8  2  0  0  0  0
  8  9  1  0  0  0  0
  9 10  1  0  0  0  0
 10 11  1  0  0  0  0
 11 12  1  0  0  0  0
  7 12  1  0  0  0  0
 12 13  1  0  0  0  0
 13 14  4  0  0  0  0
 14 15  4  0  0  0  0
 15 16  4  0  0  0  0
 16 17  4  0  0  0  0
 17 18  4  0  0  0  0
  9 18  1  0  0  0  0
 13 18  4  0  0  0  0
 10 19  1  0  0  0  0
 19 20  1  0  0  0  0
 20 21  1  0  0  0  0
 21 22  1  0  0  0  0
 22 23  1  0  0  0  0
 19 23  1  0  0  0  0
 23 24  2  0  0  0  0
  8 25  1  0  0  0  0
 25 26  2  0  0  0  0
 25 27  1  0  0  0  0
 27 28  1  0  0  0  0
 28 29  4  0  0  0  0
 29 30  4  0  0  0  0
 30 31  4  0  0  0  0
 31 32  4  0  0  0  0
 32 33  4  0  0  0  0
 28 33  4  0  0  0  0
M  END
> <ID>
CPD_3582

$$$$
CPD_3587
  Mrv1822 09091914012D          

 18 19  0  0  1  0            999 V2000
   -0.2691   -3.4225    0.0000 C   0  0  0  0  0  0  0  0  0  0  0  0
    0.4454   -3.8350    0.0000 C   0  0  0  0  0  0  0  0  0  0  0  0
    1.1598   -3.4225    0.0000 C   0  0  0  0  0  0  0  0  0  0  0  0
    1.8743   -3.8350    0.0000 C   0  0  0  0  0  0  0  0  0  0  0  0
    2.5888   -3.4225    0.0000 C   0  0  0  0  0  0  0  0  0  0  0  0
    3.3033   -3.8350    0.0000 C   0  0  2  0  0  0  0  0  0  0  0  0
    3.3033   -4.6600    0.0000 C   0  0  0  0  0  0  0  0  0  0  0  0
    4.0177   -3.4225    0.0000 N   0  0  0  0  0  0  0  0  0  0  0  0
    4.1040   -2.6020    0.0000 C   0  0  0  0  0  0  0  0  0  0  0  0
    3.4909   -2.0500    0.0000 S   0  0  0  0  0  0  0  0  0  0  0  0
    4.9109   -2.4305    0.0000 N   0  0  0  0  0  0  0  0  0  0  0  0
    5.3234   -3.1450    0.0000 C   0  0  0  0  0  0  0  0  0  0  0  0
    6.1439   -3.2312    0.0000 C   0  0  0  0  0  0  0  0  0  0  0  0
    4.7714   -3.7581    0.0000 C   0  0  0  0  0  0  0  0  0  0  0  0
    4.9429   -4.5650    0.0000 N   0  0  0  0  0  0  0  0  0  0  0  0
    5.7276   -4.8200    0.0000 C   0  0  0  0  0  0  0  0  0  0  0  0
    6.5345   -4.6484    0.0000 C   0  0  0  0  0  0  0  0  0  0  0  0
    6.2796   -5.4331    0.0000 C   0  0  0  0  0  0  0  0  0  0  0  0
  1  2  1  0  0  0  0
  2  3  1  0  0  0  0
  3  4  1  0  0  0  0
  4  5  1  0  0  0  0
  6  5  1  0  0  0  0
  6  7  1  1  0  0  0
  6  8  1  0  0  0  0
  8  9  1  0  0  0  0
  9 10  2  0  0  0  0
  9 11  1  0  0  0  0
 11 12  1  0  0  0  0
 12 13  1  0  0  0  0
 12 14  2  0  0  0  0
  8 14  1  0  0  0  0
 14 15  1  0  0  0  0
 15 16  1  0  0  0  0
 16 17  1  0  0  0  0
 17 18  1  0  0  0  0
 16 18  1  0  0  0  0
M  END
> <ID>
CPD_3587

$$$$
CPD_3592
  Mrv1822 09091914012D          

 23 24  0  0  0  0            999 V2000
    1.4167   -4.5052    0.0000 C   0  0  0  0  0  0  0  0  0  0  0  0
    0.9318   -3.8378    0.0000 C   0  0  0  0  0  0  0  0  0  0  0  0
    1.2674   -3.0841    0.0000 C   0  0  0  0  0  0  0  0  0  0  0  0
    0.7825   -2.4167    0.0000 N   0  0  0  0  0  0  0  0  0  0  0  0
   -0.0425   -2.4167    0.0000 C   0  0  0  0  0  0  0  0  0  0  0  0
   -0.5275   -3.0841    0.0000 O   0  0  0  0  0  0  0  0  0  0  0  0
   -0.2975   -1.6320    0.0000 C   0  0  0  0  0  0  0  0  0  0  0  0
   -1.0821   -1.3771    0.0000 C   0  0  0  0  0  0  0  0  0  0  0  0
    0.3700   -1.1471    0.0000 N   0  0  0  0  0  0  0  0  0  0  0  0
    1.0374   -1.6320    0.0000 C   0  0  0  0  0  0  0  0  0  0  0  0
    1.8220   -1.3771    0.0000 S   0  0  0  0  0  0  0  0  0  0  0  0
   -0.0350   -0.4284    0.0000 C   0  0  0  0  0  0  0  0  0  0  0  0
   -0.8600   -0.4197    0.0000 C   0  0  0  0  0  0  0  0  0  0  0  0
   -1.2650    0.2990    0.0000 C   0  0  0  0  0  0  0  0  0  0  0  0
   -2.0899    0.3077    0.0000 F   0  0  0  0  0  0  0  0  0  0  0  0
   -0.8450    1.0091    0.0000 C   0  0  0  0  0  0  0  0  0  0  0  0
   -1.2500    1.7279    0.0000 F   0  0  0  0  0  0  0  0  0  0  0  0
   -0.0201    1.0005    0.0000 C   0  0  0  0  0  0  0  0  0  0  0  0
    0.3849    0.2817    0.0000 C   0  0  0  0  0  0  0  0  0  0  0  0
    0.7750   -0.4284    0.0000 S   0  0  0  0  0  0  0  0  0  0  0  0
    1.1800    0.2904    0.0000 C   0  0  0  0  0  0  0  0  0  0  0  0
    1.4937   -0.8334    0.0000 O   0  0  0  0  0  0  0  0  0  0  0  0
    0.6801    0.3912    0.0000 O   0  0  0  0  0  0  0  0  0  0  0  0
  1  2  1  0  0  0  0
  2  3  1  0  0  0  0
  3  4  1  0  0  0  0
  4  5  1  0  0  0  0
  5  6  1  0  0  0  0
  5  7  2  0  0  0  0
  7  8  1  0  0  0  0
  7  9  1  0  0  0  0
  9 10  1  0  0  0  0
  4 10  1  0  0  0  0
 10 11  2  0  0  0  0
  9 12  1  0  0  0  0
 12 13  2  0  0  0  0
 13 14  1  0  0  0  0
 14 15  1  0  0  0  0
 14 16  2  0  0  0  0
 16 17  1  0  0  0  0
 16 18  1  0  0  0  0
 18 19  2  0  0  0  0
 12 19  1  0  0  0  0
  9 20  1  0  0  0  0
 20 21  1  0  0  0  0
 20 22  2  0  0  0  0
 20 23  2  0  0  0  0
M  RAD  1   9   2
M  END
> <ID>
CPD_3592

$$$$
CPD_3597
  Mrv1822 09091914012D          

 34 38  0  0  1  0            999 V2000
   -0.6985    0.4389    0.0000 H   0  0  0  0  0  0  0  0  0  0  0  0
    0.0000   -0.0000    0.0000 C   0  0  1  0  0  0  0  0  0  0  0  0
   -0.7433   -0.3580    0.0000 O   0  0  0  0  0  0  0  0  0  0  0  0
    0.6450   -0.5144    0.0000 C   0  0  2  0  0  0  0  0  0  0  0  0
    0.4614   -1.3187    0.0000 H   0  0  0  0  0  0  0  0  0  0  0  0
    1.4493   -0.3308    0.0000 C   0  0  0  0  0  0  0  0  0  0  0  0
    1.8073    0.4125    0.0000 C   0  0  1  0  0  0  0  0  0  0  0  0
    1.4493    1.1558    0.0000 C   0  0  0  0  0  0  0  0  0  0  0  0
    0.6450    1.3394    0.0000 C   0  0  1  0  0  0  0  0  0  0  0  0
    0.4614    2.1437    0.0000 H   0  0  0  0  0  0  0  0  0  0  0  0
    0.8767    0.4125    0.0000 N   0  0  0  0  0  0  0  0  0  0  0  0
    1.6614    0.6674    0.0000 C   0  0  0  0  0  0  0  0  0  0  0  0
   -0.0000    0.8250    0.0000 C   0  0  0  0  0  0  0  0  0  0  0  0
   -0.0924    1.6448    0.0000 H   0  0  0  0  0  0  0  0  0  0  0  0
   -0.7433    1.1830    0.0000 N   0  0  0  0  0  0  0  0  0  0  0  0
   -1.5220    0.9105    0.0000 C   0  0  0  0  0  0  0  0  0  0  0  0
   -1.7945    1.6892    0.0000 C   0  0  0  0  0  0  0  0  0  0  0  0
   -2.5732    1.4167    0.0000 O   0  0  0  0  0  0  0  0  0  0  0  0
   -1.0158    1.9617    0.0000 C   0  0  0  0  0  0  0  0  0  0  0  0
   -2.0670    2.4679    0.0000 C   0  0  0  0  0  0  0  0  0  0  0  0
   -2.6923    3.0060    0.0000 C   0  0  0  0  0  0  0  0  0  0  0  0
   -1.9136    3.2785    0.0000 C   0  0  0  0  0  0  0  0  0  0  0  0
    2.6323    0.4125    0.0000 O   0  0  0  0  0  0  0  0  0  0  0  0
    3.0448   -0.3020    0.0000 C   0  0  0  0  0  0  0  0  0  0  0  0
    2.6323   -1.0164    0.0000 O   0  0  0  0  0  0  0  0  0  0  0  0
    3.8698   -0.3020    0.0000 C   0  0  2  0  0  0  0  0  0  0  0  0
    4.2823    0.4125    0.0000 C   0  0  0  0  0  0  0  0  0  0  0  0
    5.1073    0.4125    0.0000 O   0  0  0  0  0  0  0  0  0  0  0  0
    4.2823   -1.0164    0.0000 C   0  0  0  0  0  0  0  0  0  0  0  0
    5.1073   -1.0164    0.0000 C   0  0  0  0  0  0  0  0  0  0  0  0
    5.5198   -1.7309    0.0000 C   0  0  0  0  0  0  0  0  0  0  0  0
    5.1073   -2.4454    0.0000 C   0  0  0  0  0  0  0  0  0  0  0  0
    4.2823   -2.4454    0.0000 C   0  0  0  0  0  0  0  0  0  0  0  0
    3.8698   -1.7309    0.0000 C   0  0  0  0  0  0  0  0  0  0  0  0
  2  1  1  1  0  0  0
  2  3  1  6  0  0  0
  2  4  1  0  0  0  0
  4  5  1  6  0  0  0
  4  6  1  0  0  0  0
  7  6  1  0  0  0  0
  7  8  1  0  0  0  0
  9  8  1  0  0  0  0
  9 10  1  6  0  0  0
  9 11  1  0  0  0  0
  4 11  1  0  0  0  0
 11 12  1  0  0  0  0
  9 13  1  0  0  0  0
  2 13  1  0  0  0  0
 13 14  1  0  0  0  0
 13 15  1  0  0  0  0
 15 16  1  0  0  0  0
 16 17  1  0  0  0  0
 17 18  1  0  0  0  0
 17 19  1  0  0  0  0
 15 19  1  0  0  0  0
 17 20  1  0  0  0  0
 20 21  1  0  0  0  0
 21 22  1  0  0  0  0
 20 22  1  0  0  0  0
  7 23  1  1  0  0  0
 23 24  1  0  0  0  0
 24 25  2  0  0  0  0
 26 24  1  6  0  0  0
 26 27  1  0  0  0  0
 27 28  1  0  0  0  0
 26 29  1  0  0  0  0
 29 30  2  0  0  0  0
 30 31  1  0  0  0  0
 31 32  2  0  0  0  0
 32 33  1  0  0  0  0
 33 34  2  0  0  0  0
 29 34  1  0  0  0  0
M  END
> <ID>
CPD_3597

$$$$
CPD_3602
  Mrv1822 09091914012D          

 20 22  0  0  0  0            999 V2000
   -5.3313   -2.8948    0.0000 C   0  0  0  0  0  0  0  0  0  0  0  0
   -4.6993   -2.3645    0.0000 C   0  0  0  0  0  0  0  0  0  0  0  0
   -4.0673   -2.8948    0.0000 C   0  0  0  0  0  0  0  0  0  0  0  0
   -5.1118   -1.6500    0.0000 C   0  0  0  0  0  0  0  0  0  0  0  0
   -4.2868   -1.6500    0.0000 C   0  0  0  0  0  0  0  0  0  0  0  0
   -3.5724   -1.2375    0.0000 N   0  0  0  0  0  0  0  0  0  0  0  0
   -2.8579   -1.6500    0.0000 C   0  0  0  0  0  0  0  0  0  0  0  0
   -2.1434   -1.2375    0.0000 C   0  0  0  0  0  0  0  0  0  0  0  0
   -2.1434   -0.4125    0.0000 O   0  0  0  0  0  0  0  0  0  0  0  0
   -1.4289   -1.6500    0.0000 C   0  0  0  0  0  0  0  0  0  0  0  0
   -0.7145   -1.2375    0.0000 N   0  0  0  0  0  0  0  0  0  0  0  0
    0.0000   -1.6500    0.0000 C   0  0  0  0  0  0  0  0  0  0  0  0
    0.7145   -1.2375    0.0000 C   0  0  0  0  0  0  0  0  0  0  0  0
    0.7145   -0.4125    0.0000 C   0  0  0  0  0  0  0  0  0  0  0  0
    0.0000   -0.0000    0.0000 C   0  0  0  0  0  0  0  0  0  0  0  0
   -0.7145   -0.4125    0.0000 C   0  0  0  0  0  0  0  0  0  0  0  0
    0.0000    0.8250    0.0000 C   0  0  0  0  0  0  0  0  0  0  0  0
    0.7145    1.2375    0.0000 C   0  0  0  0  0  0  0  0  0  0  0  0
    1.4289    0.8250    0.0000 C   0  0  0  0  0  0  0  0  0  0  0  0
    1.4289   -0.0000    0.0000 C   0  0  0  0  0  0  0  0  0  0  0  0
  1  2  1  0  0  0  0
  2  3  1  0  0  0  0
  2  4  1  0  0  0  0
  4  5  1  0  0  0  0
  2  5  1  0  0  0  0
  5  6  1  0  0  0  0
  6  7  1  0  0  0  0
  7  8  1  0  0  0  0
  8  9  1  0  0  0  0
  8 10  1  0  0  0  0
 10 11  1  0  0  0  0
 11 12  1  0  0  0  0
 12 13  1  0  0  0  0
 13 14  1  0  0  0  0
 14 15  2  0  0  0  0
 15 16  1  0  0  0  0
 11 16  1  0  0  0  0
 15 17  1  0  0  0  0
 17 18  2  0  0  0  0
 18 19  1  0  0  0  0
 19 20  2  0  0  0  0
 14 20  1  0  0  0  0
M  END
> <ID>
CPD_3602

$$$$
CPD_3607
  Mrv1822 09091914012D          

 35 36  0  0  0  0            999 V2000
    3.0767   -5.8497    0.0000 C   0  0  0  0  0  0  0  0  0  0  0  0
    3.8869   -5.6938    0.0000 O   0  0  0  0  0  0  0  0  0  0  0  0
    4.1569   -4.9143    0.0000 C   0  0  0  0  0  0  0  0  0  0  0  0
    4.9671   -4.7584    0.0000 C   0  0  0  0  0  0  0  0  0  0  0  0
    5.2371   -3.9788    0.0000 N   0  0  0  0  0  0  0  0  0  0  0  0
    4.6970   -3.3552    0.0000 C   0  0  0  0  0  0  0  0  0  0  0  0
    4.9671   -2.5756    0.0000 C   0  0  0  0  0  0  0  0  0  0  0  0
    4.4270   -1.9520    0.0000 O   0  0  0  0  0  0  0  0  0  0  0  0
    3.6168   -2.1079    0.0000 C   0  0  0  0  0  0  0  0  0  0  0  0
    6.0472   -3.8229    0.0000 C   0  0  0  0  0  0  0  0  0  0  0  0
    6.3173   -3.0433    0.0000 C   0  0  0  0  0  0  0  0  0  0  0  0
    5.7772   -2.4197    0.0000 O   0  0  0  0  0  0  0  0  0  0  0  0
    7.1274   -2.8874    0.0000 C   0  0  0  0  0  0  0  0  0  0  0  0
    7.3975   -2.1079    0.0000 N   0  0  0  0  0  0  0  0  0  0  0  0
    6.8574   -1.4842    0.0000 C   0  0  0  0  0  0  0  0  0  0  0  0
    7.1274   -0.7047    0.0000 C   0  0  0  0  0  0  0  0  0  0  0  0
    6.5873   -0.0810    0.0000 C   0  0  0  0  0  0  0  0  0  0  0  0
    5.7772   -0.2370    0.0000 C   0  0  0  0  0  0  0  0  0  0  0  0
    5.5071   -1.0165    0.0000 C   0  0  0  0  0  0  0  0  0  0  0  0
    6.0472   -1.6402    0.0000 C   0  0  0  0  0  0  0  0  0  0  0  0
    6.8574    0.6985    0.0000 C   0  0  0  0  0  0  0  0  0  0  0  0
    7.1274    1.4781    0.0000 F   0  0  0  0  0  0  0  0  0  0  0  0
    7.6369    0.4285    0.0000 F   0  0  0  0  0  0  0  0  0  0  0  0
    6.0778    0.9685    0.0000 F   0  0  0  0  0  0  0  0  0  0  0  0
    8.2076   -1.9520    0.0000 S   0  0  0  0  0  0  0  0  0  0  0  0
    9.0177   -1.7961    0.0000 O   0  0  0  0  0  0  0  0  0  0  0  0
    8.0517   -1.1418    0.0000 O   0  0  0  0  0  0  0  0  0  0  0  0
    8.3635   -2.7621    0.0000 C   0  0  0  0  0  0  0  0  0  0  0  0
    9.1431   -3.0321    0.0000 C   0  0  0  0  0  0  0  0  0  0  0  0
    9.2990   -3.8423    0.0000 C   0  0  0  0  0  0  0  0  0  0  0  0
    8.6753   -4.3824    0.0000 C   0  0  0  0  0  0  0  0  0  0  0  0
    8.8312   -5.1925    0.0000 O   0  0  0  0  0  0  0  0  0  0  0  0
    9.6108   -5.4626    0.0000 C   0  0  0  0  0  0  0  0  0  0  0  0
    7.8958   -4.1123    0.0000 C   0  0  0  0  0  0  0  0  0  0  0  0
    7.7399   -3.3022    0.0000 C   0  0  0  0  0  0  0  0  0  0  0  0
  1  2  1  0  0  0  0
  2  3  1  0  0  0  0
  3  4  1  0  0  0  0
  4  5  1  0  0  0  0
  5  6  1  0  0  0  0
  6  7  1  0  0  0  0
  7  8  1  0  0  0  0
  8  9  1  0  0  0  0
  5 10  1  0  0  0  0
 10 11  1  0  0  0  0
 11 12  1  0  0  0  0
 11 13  1  0  0  0  0
 13 14  1  0  0  0  0
 14 15  1  0  0  0  0
 15 16  2  0  0  0  0
 16 17  1  0  0  0  0
 17 18  2  0  0  0  0
 18 19  1  0  0  0  0
 19 20  2  0  0  0  0
 15 20  1  0  0  0  0
 17 21  1  0  0  0  0
 21 22  1  0  0  0  0
 21 23  1  0  0  0  0
 21 24  1  0  0  0  0
 14 25  1  0  0  0  0
 25 26  2  0  0  0  0
 25 27  2  0  0  0  0
 25 28  1  0  0  0  0
 28 29  2  0  0  0  0
 29 30  1  0  0  0  0
 30 31  2  0  0  0  0
 31 32  1  0  0  0  0
 32 33  1  0  0  0  0
 31 34  1  0  0  0  0
 34 35  2  0  0  0  0
 28 35  1  0  0  0  0
M  END
> <ID>
CPD_3607

$$$$
CPD_3612
  Mrv1822 09091914012D          

 24 26  0  0  1  0            999 V2000
    1.9924   -2.9074    0.0000 N   0  0  0  0  0  0  0  0  0  0  0  0
    1.9924   -2.0824    0.0000 C   0  0  0  0  0  0  0  0  0  0  0  0
    1.4091   -1.4990    0.0000 C   0  0  0  0  0  0  0  0  0  0  0  0
    1.9924   -0.9157    0.0000 N   0  0  0  0  0  0  0  0  0  0  0  0
    1.4091   -0.3323    0.0000 C   0  0  0  0  0  0  0  0  0  0  0  0
    0.6122   -0.5458    0.0000 C   0  0  0  0  0  0  0  0  0  0  0  0
    0.3986   -1.3427    0.0000 F   0  0  0  0  0  0  0  0  0  0  0  0
    0.0288    0.0375    0.0000 F   0  0  0  0  0  0  0  0  0  0  0  0
    2.5758   -1.4990    0.0000 C   0  0  0  0  0  0  0  0  0  0  0  0
    2.5758   -0.3323    0.0000 C   0  0  0  0  0  0  0  0  0  0  0  0
    2.3623    0.4646    0.0000 C   0  0  1  0  0  0  0  0  0  0  0  0
    1.5654    0.6781    0.0000 O   0  0  0  0  0  0  0  0  0  0  0  0
    2.9456    1.0480    0.0000 C   0  0  0  0  0  0  0  0  0  0  0  0
    2.7321    1.8449    0.0000 C   0  0  0  0  0  0  0  0  0  0  0  0
    3.3155    2.4282    0.0000 C   0  0  0  0  0  0  0  0  0  0  0  0
    4.1124    2.2147    0.0000 C   0  0  0  0  0  0  0  0  0  0  0  0
    4.3259    1.4178    0.0000 C   0  0  0  0  0  0  0  0  0  0  0  0
    3.7425    0.8344    0.0000 C   0  0  0  0  0  0  0  0  0  0  0  0
    3.3727   -0.5458    0.0000 C   0  0  0  0  0  0  0  0  0  0  0  0
    3.9560    0.0375    0.0000 C   0  0  0  0  0  0  0  0  0  0  0  0
    4.7529   -0.1760    0.0000 C   0  0  0  0  0  0  0  0  0  0  0  0
    4.9665   -0.9729    0.0000 C   0  0  0  0  0  0  0  0  0  0  0  0
    4.3831   -1.5562    0.0000 C   0  0  0  0  0  0  0  0  0  0  0  0
    3.5862   -1.3427    0.0000 C   0  0  0  0  0  0  0  0  0  0  0  0
  1  2  1  0  0  0  0
  2  3  1  0  0  0  0
  3  4  1  0  0  0  0
  4  5  1  0  0  0  0
  5  6  1  0  0  0  0
  6  7  1  0  0  0  0
  6  8  1  0  0  0  0
  4  9  1  0  0  0  0
  2  9  1  0  0  0  0
  4 10  1  0  0  0  0
 11 10  1  0  0  0  0
 11 12  1  1  0  0  0
 11 13  1  0  0  0  0
 13 14  2  0  0  0  0
 14 15  1  0  0  0  0
 15 16  2  0  0  0  0
 16 17  1  0  0  0  0
 17 18  2  0  0  0  0
 13 18  1  0  0  0  0
 10 19  1  0  0  0  0
 19 20  2  0  0  0  0
 20 21  1  0  0  0  0
 21 22  2  0  0  0  0
 22 23  1  0  0  0  0
 23 24  2  0  0  0  0
 19 24  1  0  0  0  0
M  RAD  1   4   2
M  END
> <ID>
CPD_3612

$$$$
CPD_3617
  Mrv1822 09091914012D          

 24 25  0  0  0  0            999 V2000
   -2.9197   -2.4323    0.0000 C   0  0  0  0  0  0  0  0  0  0  0  0
   -2.2053   -2.0198    0.0000 C   0  0  0  0  0  0  0  0  0  0  0  0
   -1.4908   -2.4323    0.0000 C   0  0  0  0  0  0  0  0  0  0  0  0
   -0.7763   -2.0198    0.0000 C   0  0  0  0  0  0  0  0  0  0  0  0
   -0.0618   -2.4323    0.0000 C   0  0  0  0  0  0  0  0  0  0  0  0
   -0.0618   -3.2573    0.0000 O   0  0  0  0  0  0  0  0  0  0  0  0
   -0.7763   -1.1948    0.0000 N   0  0  0  0  0  0  0  0  0  0  0  0
   -0.1929   -0.6115    0.0000 C   0  0  0  0  0  0  0  0  0  0  0  0
   -0.7763   -0.0281    0.0000 C   0  0  0  0  0  0  0  0  0  0  0  0
   -0.1929    0.5553    0.0000 O   0  0  0  0  0  0  0  0  0  0  0  0
   -1.3597   -0.6115    0.0000 C   0  0  0  0  0  0  0  0  0  0  0  0
   -1.3597    0.5553    0.0000 C   0  0  0  0  0  0  0  0  0  0  0  0
   -2.1566    0.3417    0.0000 C   0  0  0  0  0  0  0  0  0  0  0  0
   -2.7399    0.9251    0.0000 C   0  0  0  0  0  0  0  0  0  0  0  0
   -2.5264    1.7220    0.0000 C   0  0  0  0  0  0  0  0  0  0  0  0
   -1.7295    1.9355    0.0000 C   0  0  0  0  0  0  0  0  0  0  0  0
   -1.1461    1.3521    0.0000 N   0  0  0  0  0  0  0  0  0  0  0  0
   -0.3493    1.5657    0.0000 C   0  0  0  0  0  0  0  0  0  0  0  0
   -0.1357    2.3626    0.0000 O   0  0  0  0  0  0  0  0  0  0  0  0
    0.2341    0.9823    0.0000 O   0  0  0  0  0  0  0  0  0  0  0  0
    1.0310    1.1958    0.0000 C   0  0  0  0  0  0  0  0  0  0  0  0
    1.8279    1.4094    0.0000 C   0  0  0  0  0  0  0  0  0  0  0  0
    1.2445    0.3989    0.0000 C   0  0  0  0  0  0  0  0  0  0  0  0
    0.8175    1.9927    0.0000 C   0  0  0  0  0  0  0  0  0  0  0  0
  1  2  1  0  0  0  0
  2  3  1  0  0  0  0
  3  4  1  0  0  0  0
  4  5  1  0  0  0  0
  5  6  1  0  0  0  0
  4  7  1  0  0  0  0
  7  8  1  0  0  0  0
  8  9  1  0  0  0  0
  9 10  1  0  0  0  0
  9 11  1  0  0  0  0
  7 11  1  0  0  0  0
  9 12  1  0  0  0  0
 12 13  1  0  0  0  0
 13 14  1  0  0  0  0
 14 15  1  0  0  0  0
 15 16  1  0  0  0  0
 16 17  1  0  0  0  0
 12 17  1  0  0  0  0
 17 18  1  0  0  0  0
 18 19  2  0  0  0  0
 18 20  1  0  0  0  0
 20 21  1  0  0  0  0
 21 22  1  0  0  0  0
 21 23  1  0  0  0  0
 21 24  1  0  0  0  0
M  END
> <ID>
CPD_3617

$$$$
CPD_3622
  Mrv1822 09091914012D          

 34 36  0  0  0  0            999 V2000
   -0.1891   12.9279    0.0000 C   0  0  0  0  0  0  0  0  0  0  0  0
    0.0658   12.1433    0.0000 C   0  0  0  0  0  0  0  0  0  0  0  0
    0.8728   11.9718    0.0000 C   0  0  0  0  0  0  0  0  0  0  0  0
    1.1277   11.1872    0.0000 C   0  0  0  0  0  0  0  0  0  0  0  0
    1.9347   11.0156    0.0000 C   0  0  0  0  0  0  0  0  0  0  0  0
    2.1896   10.2310    0.0000 S   0  0  0  0  0  0  0  0  0  0  0  0
    1.4050    9.9761    0.0000 O   0  0  0  0  0  0  0  0  0  0  0  0
    2.9743   10.4860    0.0000 O   0  0  0  0  0  0  0  0  0  0  0  0
    2.4446    9.4464    0.0000 N   0  0  0  0  0  0  0  0  0  0  0  0
    3.2516    9.2749    0.0000 C   0  0  0  0  0  0  0  0  0  0  0  0
    3.5065    8.4903    0.0000 C   0  0  0  0  0  0  0  0  0  0  0  0
    2.9545    7.8772    0.0000 C   0  0  0  0  0  0  0  0  0  0  0  0
    2.1475    8.0487    0.0000 C   0  0  0  0  0  0  0  0  0  0  0  0
    1.8926    8.8333    0.0000 C   0  0  0  0  0  0  0  0  0  0  0  0
    3.2094    7.0925    0.0000 C   0  0  0  0  0  0  0  0  0  0  0  0
    4.0164    6.9210    0.0000 O   0  0  0  0  0  0  0  0  0  0  0  0
    2.6574    6.4794    0.0000 O   0  0  0  0  0  0  0  0  0  0  0  0
    2.9123    5.6948    0.0000 C   0  0  0  0  0  0  0  0  0  0  0  0
    2.3603    5.0817    0.0000 C   0  0  0  0  0  0  0  0  0  0  0  0
    1.8082    5.6948    0.0000 C   0  0  0  0  0  0  0  0  0  0  0  0
    3.0277    4.5968    0.0000 C   0  0  0  0  0  0  0  0  0  0  0  0
    2.7728    3.8122    0.0000 C   0  0  0  0  0  0  0  0  0  0  0  0
    1.9478    3.8122    0.0000 N   0  0  0  0  0  0  0  0  0  0  0  0
    1.6928    4.5968    0.0000 C   0  0  0  0  0  0  0  0  0  0  0  0
    1.4629    3.1447    0.0000 C   0  0  0  0  0  0  0  0  0  0  0  0
    1.7984    2.3911    0.0000 O   0  0  0  0  0  0  0  0  0  0  0  0
    0.6424    3.2310    0.0000 O   0  0  0  0  0  0  0  0  0  0  0  0
    0.1575    2.5635    0.0000 C   0  0  0  0  0  0  0  0  0  0  0  0
   -0.3275    1.8961    0.0000 C   0  0  0  0  0  0  0  0  0  0  0  0
   -0.5100    3.0485    0.0000 C   0  0  0  0  0  0  0  0  0  0  0  0
    0.8249    2.0786    0.0000 C   0  0  0  0  0  0  0  0  0  0  0  0
    0.5757   10.5741    0.0000 C   0  0  0  0  0  0  0  0  0  0  0  0
   -0.2313   10.7456    0.0000 C   0  0  0  0  0  0  0  0  0  0  0  0
   -0.4862   11.5302    0.0000 C   0  0  0  0  0  0  0  0  0  0  0  0
  1  2  1  0  0  0  0
  2  3  2  0  0  0  0
  3  4  1  0  0  0  0
  4  5  1  0  0  0  0
  5  6  1  0  0  0  0
  6  7  2  0  0  0  0
  6  8  2  0  0  0  0
  6  9  1  0  0  0  0
  9 10  1  0  0  0  0
 10 11  1  0  0  0  0
 11 12  1  0  0  0  0
 12 13  1  0  0  0  0
 13 14  1  0  0  0  0
  9 14  1  0  0  0  0
 12 15  1  0  0  0  0
 15 16  2  0  0  0  0
 15 17  1  0  0  0  0
 17 18  1  0  0  0  0
 18 19  1  0  0  0  0
 19 20  1  0  0  0  0
 19 21  1  0  0  0  0
 21 22  1  0  0  0  0
 22 23  1  0  0  0  0
 23 24  1  0  0  0  0
 19 24  1  0  0  0  0
 23 25  1  0  0  0  0
 25 26  2  0  0  0  0
 25 27  1  0  0  0  0
 27 28  1  0  0  0  0
 28 29  1  0  0  0  0
 28 30  1  0  0  0  0
 28 31  1  0  0  0  0
  4 32  2  0  0  0  0
 32 33  1  0  0  0  0
 33 34  2  0  0  0  0
  2 34  1  0  0  0  0
M  END
> <ID>
CPD_3622

$$$$
CPD_3627
  Mrv1822 09091914012D          

 33 35  0  0  0  0            999 V2000
    0.3008   -0.9905    0.0000 C   0  0  0  0  0  0  0  0  0  0  0  0
    0.1026   -1.7914    0.0000 C   0  0  0  0  0  0  0  0  0  0  0  0
   -0.6900   -2.0202    0.0000 C   0  0  0  0  0  0  0  0  0  0  0  0
   -1.2845   -1.4481    0.0000 N   0  0  0  0  0  0  0  0  0  0  0  0
   -1.1712   -0.6310    0.0000 C   0  0  0  0  0  0  0  0  0  0  0  0
   -0.4434   -0.2424    0.0000 O   0  0  0  0  0  0  0  0  0  0  0  0
   -1.9133   -0.2706    0.0000 C   0  0  0  0  0  0  0  0  0  0  0  0
   -2.4853   -0.8651    0.0000 C   0  0  0  0  0  0  0  0  0  0  0  0
   -3.2862   -0.6670    0.0000 C   0  0  0  0  0  0  0  0  0  0  0  0
   -3.5150    0.1257    0.0000 C   0  0  0  0  0  0  0  0  0  0  0  0
   -2.9430    0.7202    0.0000 C   0  0  0  0  0  0  0  0  0  0  0  0
   -2.1421    0.5220    0.0000 C   0  0  0  0  0  0  0  0  0  0  0  0
   -2.0967   -1.5929    0.0000 C   0  0  0  0  0  0  0  0  0  0  0  0
   -2.4571   -2.3350    0.0000 O   0  0  0  0  0  0  0  0  0  0  0  0
    0.6971   -2.3634    0.0000 O   0  0  0  0  0  0  0  0  0  0  0  0
    1.4897   -2.1346    0.0000 C   0  0  0  0  0  0  0  0  0  0  0  0
    1.6879   -1.3337    0.0000 O   0  0  0  0  0  0  0  0  0  0  0  0
    2.0842   -2.7066    0.0000 C   0  0  0  0  0  0  0  0  0  0  0  0
    2.8768   -2.4778    0.0000 C   0  0  0  0  0  0  0  0  0  0  0  0
    3.4713   -3.0498    0.0000 C   0  0  0  0  0  0  0  0  0  0  0  0
    4.2639   -2.8210    0.0000 N   0  0  0  0  0  0  0  0  0  0  0  0
    4.8584   -3.3931    0.0000 C   0  0  0  0  0  0  0  0  0  0  0  0
    5.6510   -3.1642    0.0000 C   0  0  0  0  0  0  0  0  0  0  0  0
    6.2455   -3.7363    0.0000 C   0  0  0  0  0  0  0  0  0  0  0  0
    6.0474   -4.5371    0.0000 C   0  0  0  0  0  0  0  0  0  0  0  0
    5.2547   -4.7659    0.0000 C   0  0  0  0  0  0  0  0  0  0  0  0
    5.0566   -5.5668    0.0000 Cl  0  0  0  0  0  0  0  0  0  0  0  0
    4.6602   -4.1939    0.0000 C   0  0  0  0  0  0  0  0  0  0  0  0
    3.8676   -4.4227    0.0000 C   0  0  0  0  0  0  0  0  0  0  0  0
    4.4621   -2.0202    0.0000 S   0  0  0  0  0  0  0  0  0  0  0  0
    5.2629   -2.2183    0.0000 C   0  0  0  0  0  0  0  0  0  0  0  0
    3.6612   -1.8220    0.0000 O   0  0  0  0  0  0  0  0  0  0  0  0
    4.6602   -1.2193    0.0000 O   0  0  0  0  0  0  0  0  0  0  0  0
  1  2  1  0  0  0  0
  2  3  1  0  0  0  0
  3  4  1  0  0  0  0
  4  5  1  0  0  0  0
  5  6  2  0  0  0  0
  5  7  1  0  0  0  0
  7  8  2  0  0  0  0
  8  9  1  0  0  0  0
  9 10  2  0  0  0  0
 10 11  1  0  0  0  0
 11 12  2  0  0  0  0
  7 12  1  0  0  0  0
  8 13  1  0  0  0  0
  4 13  1  0  0  0  0
 13 14  2  0  0  0  0
  2 15  1  0  0  0  0
 15 16  1  0  0  0  0
 16 17  2  0  0  0  0
 16 18  1  0  0  0  0
 18 19  1  0  0  0  0
 19 20  1  0  0  0  0
 20 21  1  0  0  0  0
 21 22  1  0  0  0  0
 22 23  2  0  0  0  0
 23 24  1  0  0  0  0
 24 25  2  0  0  0  0
 25 26  1  0  0  0  0
 26 27  1  0  0  0  0
 26 28  2  0  0  0  0
 22 28  1  0  0  0  0
 28 29  1  0  0  0  0
 21 30  1  0  0  0  0
 30 31  1  0  0  0  0
 30 32  2  0  0  0  0
 30 33  2  0  0  0  0
M  END
> <ID>
CPD_3627

$$$$
CPD_3632
  Mrv1822 09091914012D          

 26 27  0  0  0  0            999 V2000
    1.4289   -3.3000    0.0000 C   0  0  0  0  0  0  0  0  0  0  0  0
    0.7145   -2.8875    0.0000 C   0  0  0  0  0  0  0  0  0  0  0  0
    0.0000   -3.3000    0.0000 C   0  0  0  0  0  0  0  0  0  0  0  0
   -0.0000   -4.1250    0.0000 Cl  0  0  0  0  0  0  0  0  0  0  0  0
   -0.7145   -2.8875    0.0000 C   0  0  0  0  0  0  0  0  0  0  0  0
   -0.7145   -2.0625    0.0000 C   0  0  0  0  0  0  0  0  0  0  0  0
    0.0000   -1.6500    0.0000 C   0  0  0  0  0  0  0  0  0  0  0  0
    0.7145   -2.0625    0.0000 C   0  0  0  0  0  0  0  0  0  0  0  0
    1.4289   -1.6500    0.0000 N   0  0  0  0  0  0  0  0  0  0  0  0
    2.1434   -2.0625    0.0000 C   0  0  0  0  0  0  0  0  0  0  0  0
    2.8579   -1.6500    0.0000 C   0  0  0  0  0  0  0  0  0  0  0  0
    3.5724   -2.0625    0.0000 C   0  0  0  0  0  0  0  0  0  0  0  0
    4.2868   -1.6500    0.0000 C   0  0  0  0  0  0  0  0  0  0  0  0
    4.2868   -0.8250    0.0000 O   0  0  0  0  0  0  0  0  0  0  0  0
    5.0013   -2.0625    0.0000 O   0  0  0  0  0  0  0  0  0  0  0  0
    5.7158   -1.6500    0.0000 C   0  0  0  0  0  0  0  0  0  0  0  0
    6.4302   -2.0625    0.0000 C   0  0  0  0  0  0  0  0  0  0  0  0
    7.1839   -1.7269    0.0000 C   0  0  0  0  0  0  0  0  0  0  0  0
    7.3554   -0.9200    0.0000 Br  0  0  0  0  0  0  0  0  0  0  0  0
    7.7359   -2.3400    0.0000 S   0  0  0  0  0  0  0  0  0  0  0  0
    7.3234   -3.0545    0.0000 C   0  0  0  0  0  0  0  0  0  0  0  0
    6.5165   -2.8830    0.0000 C   0  0  0  0  0  0  0  0  0  0  0  0
    1.4289   -0.8250    0.0000 S   0  0  0  0  0  0  0  0  0  0  0  0
    1.4289    0.0000    0.0000 C   0  0  0  0  0  0  0  0  0  0  0  0
    2.2539   -0.8250    0.0000 O   0  0  0  0  0  0  0  0  0  0  0  0
    0.6039   -0.8250    0.0000 O   0  0  0  0  0  0  0  0  0  0  0  0
  1  2  1  0  0  0  0
  2  3  2  0  0  0  0
  3  4  1  0  0  0  0
  3  5  1  0  0  0  0
  5  6  2  0  0  0  0
  6  7  1  0  0  0  0
  7  8  2  0  0  0  0
  2  8  1  0  0  0  0
  8  9  1  0  0  0  0
  9 10  1  0  0  0  0
 10 11  1  0  0  0  0
 11 12  1  0  0  0  0
 12 13  1  0  0  0  0
 13 14  2  0  0  0  0
 13 15  1  0  0  0  0
 15 16  1  0  0  0  0
 16 17  1  0  0  0  0
 17 18  2  0  0  0  0
 18 19  1  0  0  0  0
 18 20  1  0  0  0  0
 20 21  1  0  0  0  0
 21 22  2  0  0  0  0
 17 22  1  0  0  0  0
  9 23  1  0  0  0  0
 23 24  1  0  0  0  0
 23 25  2  0  0  0  0
 23 26  2  0  0  0  0
M  END
> <ID>
CPD_3632

$$$$
CPD_3637
  Mrv1822 09091914012D          

 28 29  0  0  0  0            999 V2000
    2.1604    0.2209    0.0000 C   0  0  0  0  0  0  0  0  0  0  0  0
    1.3502    0.0650    0.0000 C   0  0  0  0  0  0  0  0  0  0  0  0
    1.0802   -0.7145    0.0000 C   0  0  0  0  0  0  0  0  0  0  0  0
    0.2700   -0.8704    0.0000 N   0  0  0  0  0  0  0  0  0  0  0  0
   -0.2700   -0.2468    0.0000 C   0  0  0  0  0  0  0  0  0  0  0  0
   -1.0802   -0.4027    0.0000 C   0  0  0  0  0  0  0  0  0  0  0  0
   -1.6203    0.2209    0.0000 C   0  0  0  0  0  0  0  0  0  0  0  0
   -2.4304    0.0650    0.0000 Cl  0  0  0  0  0  0  0  0  0  0  0  0
   -1.3502    1.0005    0.0000 C   0  0  0  0  0  0  0  0  0  0  0  0
   -1.8903    1.6241    0.0000 O   0  0  0  0  0  0  0  0  0  0  0  0
   -1.6203    2.4037    0.0000 C   0  0  0  0  0  0  0  0  0  0  0  0
   -0.5401    1.1564    0.0000 C   0  0  0  0  0  0  0  0  0  0  0  0
    0.0000    0.5327    0.0000 C   0  0  0  0  0  0  0  0  0  0  0  0
    0.0000   -1.6500    0.0000 S   0  0  0  0  0  0  0  0  0  0  0  0
   -0.7796   -1.3800    0.0000 C   0  0  0  0  0  0  0  0  0  0  0  0
    0.7796   -1.9200    0.0000 O   0  0  0  0  0  0  0  0  0  0  0  0
   -0.2700   -2.4296    0.0000 O   0  0  0  0  0  0  0  0  0  0  0  0
    1.6203   -1.3382    0.0000 C   0  0  0  0  0  0  0  0  0  0  0  0
    1.3502   -2.1177    0.0000 O   0  0  0  0  0  0  0  0  0  0  0  0
    2.4304   -1.1823    0.0000 O   0  0  0  0  0  0  0  0  0  0  0  0
    2.9705   -1.8059    0.0000 C   0  0  0  0  0  0  0  0  0  0  0  0
    3.7806   -1.6500    0.0000 C   0  0  0  0  0  0  0  0  0  0  0  0
    4.3207   -2.2736    0.0000 N   0  0  0  0  0  0  0  0  0  0  0  0
    5.1427   -2.2033    0.0000 C   0  0  0  0  0  0  0  0  0  0  0  0
    5.4636   -2.9633    0.0000 C   0  0  0  0  0  0  0  0  0  0  0  0
    4.8400   -3.5034    0.0000 N   0  0  0  0  0  0  0  0  0  0  0  0
    4.1336   -3.0771    0.0000 C   0  0  0  0  0  0  0  0  0  0  0  0
    3.3736   -3.3981    0.0000 C   0  0  0  0  0  0  0  0  0  0  0  0
  1  2  1  0  0  0  0
  2  3  1  0  0  0  0
  3  4  1  0  0  0  0
  4  5  1  0  0  0  0
  5  6  2  0  0  0  0
  6  7  1  0  0  0  0
  7  8  1  0  0  0  0
  7  9  2  0  0  0  0
  9 10  1  0  0  0  0
 10 11  1  0  0  0  0
  9 12  1  0  0  0  0
 12 13  2  0  0  0  0
  5 13  1  0  0  0  0
  4 14  1  0  0  0  0
 14 15  1  0  0  0  0
 14 16  2  0  0  0  0
 14 17  2  0  0  0  0
  3 18  1  0  0  0  0
 18 19  2  0  0  0  0
 18 20  1  0  0  0  0
 20 21  1  0  0  0  0
 21 22  1  0  0  0  0
 22 23  1  0  0  0  0
 23 24  1  0  0  0  0
 24 25  2  0  0  0  0
 25 26  1  0  0  0  0
 26 27  2  0  0  0  0
 23 27  1  0  0  0  0
 27 28  1  0  0  0  0
M  END
> <ID>
CPD_3637

$$$$
CPD_3642
  Mrv1822 09091914012D          

 28 29  0  0  0  0            999 V2000
    5.3329   -1.0461    0.0000 C   0  0  0  0  0  0  0  0  0  0  0  0
    4.5079   -1.0461    0.0000 C   0  0  0  0  0  0  0  0  0  0  0  0
    4.0954   -1.7605    0.0000 C   0  0  0  0  0  0  0  0  0  0  0  0
    3.2704   -1.7605    0.0000 N   0  0  0  0  0  0  0  0  0  0  0  0
    2.8579   -1.0461    0.0000 C   0  0  0  0  0  0  0  0  0  0  0  0
    2.0329   -1.0461    0.0000 C   0  0  0  0  0  0  0  0  0  0  0  0
    1.6204   -0.3316    0.0000 C   0  0  0  0  0  0  0  0  0  0  0  0
    0.7954   -0.3316    0.0000 Cl  0  0  0  0  0  0  0  0  0  0  0  0
    2.0329    0.3829    0.0000 C   0  0  0  0  0  0  0  0  0  0  0  0
    1.6204    1.0974    0.0000 C   0  0  0  0  0  0  0  0  0  0  0  0
    2.8579    0.3829    0.0000 C   0  0  0  0  0  0  0  0  0  0  0  0
    3.2704   -0.3316    0.0000 C   0  0  0  0  0  0  0  0  0  0  0  0
    2.8579   -2.4750    0.0000 S   0  0  0  0  0  0  0  0  0  0  0  0
    2.1434   -2.0625    0.0000 C   0  0  0  0  0  0  0  0  0  0  0  0
    3.5724   -2.8875    0.0000 O   0  0  0  0  0  0  0  0  0  0  0  0
    2.4454   -3.1895    0.0000 O   0  0  0  0  0  0  0  0  0  0  0  0
    4.5079   -2.4750    0.0000 C   0  0  0  0  0  0  0  0  0  0  0  0
    4.0954   -3.1895    0.0000 O   0  0  0  0  0  0  0  0  0  0  0  0
    5.3329   -2.4750    0.0000 O   0  0  0  0  0  0  0  0  0  0  0  0
    5.7454   -3.1895    0.0000 C   0  0  0  0  0  0  0  0  0  0  0  0
    6.5704   -3.1895    0.0000 N   0  0  0  0  0  0  0  0  0  0  0  0
    6.9829   -3.9039    0.0000 C   0  0  0  0  0  0  0  0  0  0  0  0
    6.5704   -4.6184    0.0000 C   0  0  0  0  0  0  0  0  0  0  0  0
    5.7454   -4.6184    0.0000 C   0  0  0  0  0  0  0  0  0  0  0  0
    5.3329   -3.9039    0.0000 N   0  0  0  0  0  0  0  0  0  0  0  0
    6.9829   -5.3329    0.0000 C   0  0  0  0  0  0  0  0  0  0  0  0
    7.8079   -5.3329    0.0000 C   0  0  0  0  0  0  0  0  0  0  0  0
    6.5704   -6.0474    0.0000 C   0  0  0  0  0  0  0  0  0  0  0  0
  1  2  1  0  0  0  0
  2  3  1  0  0  0  0
  3  4  1  0  0  0  0
  4  5  1  0  0  0  0
  5  6  2  0  0  0  0
  6  7  1  0  0  0  0
  7  8  1  0  0  0  0
  7  9  2  0  0  0  0
  9 10  1  0  0  0  0
  9 11  1  0  0  0  0
 11 12  2  0  0  0  0
  5 12  1  0  0  0  0
  4 13  1  0  0  0  0
 13 14  1  0  0  0  0
 13 15  2  0  0  0  0
 13 16  2  0  0  0  0
  3 17  1  0  0  0  0
 17 18  2  0  0  0  0
 17 19  1  0  0  0  0
 19 20  1  0  0  0  0
 20 21  2  0  0  0  0
 21 22  1  0  0  0  0
 22 23  2  0  0  0  0
 23 24  1  0  0  0  0
 24 25  2  0  0  0  0
 20 25  1  0  0  0  0
 23 26  1  0  0  0  0
 26 27  1  0  0  0  0
 26 28  1  0  0  0  0
M  END
> <ID>
CPD_3642

$$$$
CPD_3647
  Mrv1822 09091914012D          

 30 32  0  0  0  0            999 V2000
    1.4289   -0.8250    0.0000 C   0  0  0  0  0  0  0  0  0  0  0  0
    2.1434   -1.2375    0.0000 N   0  0  0  0  0  0  0  0  0  0  0  0
    2.1434   -2.0625    0.0000 C   0  0  0  0  0  0  0  0  0  0  0  0
    2.8579   -2.4750    0.0000 C   0  0  0  0  0  0  0  0  0  0  0  0
    2.8579   -3.3000    0.0000 C   0  0  0  0  0  0  0  0  0  0  0  0
    2.1434   -3.7125    0.0000 C   0  0  0  0  0  0  0  0  0  0  0  0
    1.4289   -3.3000    0.0000 C   0  0  0  0  0  0  0  0  0  0  0  0
    1.4289   -2.4750    0.0000 C   0  0  0  0  0  0  0  0  0  0  0  0
    0.7145   -2.0625    0.0000 C   0  0  0  0  0  0  0  0  0  0  0  0
    2.1434   -4.5375    0.0000 C   0  0  0  0  0  0  0  0  0  0  0  0
    2.8579   -4.9500    0.0000 O   0  0  0  0  0  0  0  0  0  0  0  0
    1.4289   -4.9500    0.0000 O   0  0  0  0  0  0  0  0  0  0  0  0
    1.4289   -5.7750    0.0000 C   0  0  0  0  0  0  0  0  0  0  0  0
    2.1434   -6.1875    0.0000 C   0  0  0  0  0  0  0  0  0  0  0  0
    2.1434   -7.0125    0.0000 C   0  0  0  0  0  0  0  0  0  0  0  0
    1.4289   -7.4250    0.0000 C   0  0  0  0  0  0  0  0  0  0  0  0
    0.7145   -7.0125    0.0000 C   0  0  0  0  0  0  0  0  0  0  0  0
    0.7145   -6.1875    0.0000 C   0  0  0  0  0  0  0  0  0  0  0  0
   -0.0000   -7.4250    0.0000 C   0  0  0  0  0  0  0  0  0  0  0  0
   -0.0000   -8.2500    0.0000 N   0  0  0  0  0  0  0  0  0  0  0  0
   -0.7145   -7.0125    0.0000 O   0  0  0  0  0  0  0  0  0  0  0  0
    2.8579   -0.8250    0.0000 S   0  0  0  0  0  0  0  0  0  0  0  0
    3.2704   -1.5395    0.0000 O   0  0  0  0  0  0  0  0  0  0  0  0
    2.4454   -0.1105    0.0000 O   0  0  0  0  0  0  0  0  0  0  0  0
    3.5724   -0.4125    0.0000 C   0  0  0  0  0  0  0  0  0  0  0  0
    3.5724    0.4125    0.0000 C   0  0  0  0  0  0  0  0  0  0  0  0
    4.2868    0.8250    0.0000 C   0  0  0  0  0  0  0  0  0  0  0  0
    5.0013    0.4125    0.0000 C   0  0  0  0  0  0  0  0  0  0  0  0
    5.0013   -0.4125    0.0000 C   0  0  0  0  0  0  0  0  0  0  0  0
    4.2868   -0.8250    0.0000 C   0  0  0  0  0  0  0  0  0  0  0  0
  1  2  1  0  0  0  0
  2  3  1  0  0  0  0
  3  4  2  0  0  0  0
  4  5  1  0  0  0  0
  5  6  2  0  0  0  0
  6  7  1  0  0  0  0
  7  8  2  0  0  0  0
  3  8  1  0  0  0  0
  8  9  1  0  0  0  0
  6 10  1  0  0  0  0
 10 11  2  0  0  0  0
 10 12  1  0  0  0  0
 12 13  1  0  0  0  0
 13 14  2  0  0  0  0
 14 15  1  0  0  0  0
 15 16  2  0  0  0  0
 16 17  1  0  0  0  0
 17 18  2  0  0  0  0
 13 18  1  0  0  0  0
 17 19  1  0  0  0  0
 19 20  1  0  0  0  0
 19 21  2  0  0  0  0
  2 22  1  0  0  0  0
 22 23  2  0  0  0  0
 22 24  2  0  0  0  0
 22 25  1  0  0  0  0
 25 26  2  0  0  0  0
 26 27  1  0  0  0  0
 27 28  2  0  0  0  0
 28 29  1  0  0  0  0
 29 30  2  0  0  0  0
 25 30  1  0  0  0  0
M  END
> <ID>
CPD_3647

$$$$
CPD_3652
  Mrv1822 09091914012D          

 31 33  0  0  1  0            999 V2000
   -2.1434   -1.2375    0.0000 C   0  0  0  0  0  0  0  0  0  0  0  0
   -1.4289   -1.6500    0.0000 C   0  0  0  0  0  0  0  0  0  0  0  0
   -0.7145   -1.2375    0.0000 O   0  0  0  0  0  0  0  0  0  0  0  0
    0.0000   -1.6500    0.0000 C   0  0  0  0  0  0  0  0  0  0  0  0
    0.0000   -2.4750    0.0000 O   0  0  0  0  0  0  0  0  0  0  0  0
    0.7145   -1.2375    0.0000 C   0  0  2  0  0  0  0  0  0  0  0  0
    1.4289   -1.6500    0.0000 O   0  0  0  0  0  0  0  0  0  0  0  0
    2.1434   -1.2375    0.0000 C   0  0  0  0  0  0  0  0  0  0  0  0
    2.1434   -0.4125    0.0000 O   0  0  0  0  0  0  0  0  0  0  0  0
    2.8579   -1.6500    0.0000 C   0  0  0  0  0  0  0  0  0  0  0  0
    3.5724   -1.2375    0.0000 C   0  0  0  0  0  0  0  0  0  0  0  0
    4.2868   -1.6500    0.0000 C   0  0  0  0  0  0  0  0  0  0  0  0
    4.2868   -2.4750    0.0000 C   0  0  0  0  0  0  0  0  0  0  0  0
    3.5724   -2.8875    0.0000 C   0  0  0  0  0  0  0  0  0  0  0  0
    2.8579   -2.4750    0.0000 C   0  0  0  0  0  0  0  0  0  0  0  0
    5.0013   -1.2375    0.0000 C   0  0  0  0  0  0  0  0  0  0  0  0
    5.0013   -0.4125    0.0000 C   0  0  0  0  0  0  0  0  0  0  0  0
    5.7158    0.0000    0.0000 C   0  0  0  0  0  0  0  0  0  0  0  0
    5.7158    0.8250    0.0000 C   0  0  0  0  0  0  0  0  0  0  0  0
    6.4302    1.2375    0.0000 C   0  0  0  0  0  0  0  0  0  0  0  0
    6.4302    2.0625    0.0000 O   0  0  0  0  0  0  0  0  0  0  0  0
    7.1447    0.8250    0.0000 O   0  0  0  0  0  0  0  0  0  0  0  0
    6.4302   -0.4125    0.0000 C   0  0  0  0  0  0  0  0  0  0  0  0
    6.4302   -1.2375    0.0000 C   0  0  0  0  0  0  0  0  0  0  0  0
    5.7158   -1.6500    0.0000 C   0  0  0  0  0  0  0  0  0  0  0  0
    0.7145   -0.4125    0.0000 C   0  0  0  0  0  0  0  0  0  0  0  0
    0.0000    0.0000    0.0000 C   0  0  0  0  0  0  0  0  0  0  0  0
    0.0000    0.8250    0.0000 C   0  0  0  0  0  0  0  0  0  0  0  0
    0.7145    1.2375    0.0000 C   0  0  0  0  0  0  0  0  0  0  0  0
    1.4289    0.8250    0.0000 C   0  0  0  0  0  0  0  0  0  0  0  0
    1.4289    0.0000    0.0000 C   0  0  0  0  0  0  0  0  0  0  0  0
  1  2  1  0  0  0  0
  2  3  1  0  0  0  0
  3  4  1  0  0  0  0
  4  5  2  0  0  0  0
  6  4  1  0  0  0  0
  6  7  1  1  0  0  0
  7  8  1  0  0  0  0
  8  9  2  0  0  0  0
  8 10  1  0  0  0  0
 10 11  2  0  0  0  0
 11 12  1  0  0  0  0
 12 13  2  0  0  0  0
 13 14  1  0  0  0  0
 14 15  2  0  0  0  0
 10 15  1  0  0  0  0
 12 16  1  0  0  0  0
 16 17  2  0  0  0  0
 17 18  1  0  0  0  0
 18 19  1  0  0  0  0
 19 20  1  0  0  0  0
 20 21  1  0  0  0  0
 20 22  2  0  0  0  0
 18 23  2  0  0  0  0
 23 24  1  0  0  0  0
 24 25  2  0  0  0  0
 16 25  1  0  0  0  0
  6 26  1  0  0  0  0
 26 27  2  0  0  0  0
 27 28  1  0  0  0  0
 28 29  2  0  0  0  0
 29 30  1  0  0  0  0
 30 31  2  0  0  0  0
 26 31  1  0  0  0  0
M  END
> <ID>
CPD_3652

$$$$
CPD_3657
  Mrv1822 09091914012D          

 38 42  0  0  0  0            999 V2000
    1.8414   -4.7118    0.0000 O   0  0  0  0  0  0  0  0  0  0  0  0
    1.1270   -5.1243    0.0000 C   0  0  0  0  0  0  0  0  0  0  0  0
    0.4125   -4.7118    0.0000 O   0  0  0  0  0  0  0  0  0  0  0  0
    1.1270   -5.9493    0.0000 C   0  0  0  0  0  0  0  0  0  0  0  0
    0.4125   -6.3618    0.0000 C   0  0  0  0  0  0  0  0  0  0  0  0
    0.4125   -7.1868    0.0000 N   0  0  0  0  0  0  0  0  0  0  0  0
    1.1270   -7.5993    0.0000 C   0  0  0  0  0  0  0  0  0  0  0  0
    1.8414   -7.1868    0.0000 N   0  0  0  0  0  0  0  0  0  0  0  0
    1.8414   -6.3618    0.0000 C   0  0  0  0  0  0  0  0  0  0  0  0
    2.5559   -5.9493    0.0000 O   0  0  0  0  0  0  0  0  0  0  0  0
    3.2704   -6.3618    0.0000 C   0  0  0  0  0  0  0  0  0  0  0  0
    3.2704   -7.1868    0.0000 O   0  0  0  0  0  0  0  0  0  0  0  0
    3.9849   -5.9493    0.0000 C   0  0  0  0  0  0  0  0  0  0  0  0
    3.9849   -5.1243    0.0000 C   0  0  0  0  0  0  0  0  0  0  0  0
    4.6993   -4.7118    0.0000 C   0  0  0  0  0  0  0  0  0  0  0  0
    5.4138   -5.1243    0.0000 C   0  0  0  0  0  0  0  0  0  0  0  0
    6.1283   -4.7118    0.0000 C   0  0  0  0  0  0  0  0  0  0  0  0
    6.8427   -5.1243    0.0000 N   0  0  0  0  0  0  0  0  0  0  0  0
    6.8427   -5.9493    0.0000 C   0  0  0  0  0  0  0  0  0  0  0  0
    7.5572   -6.3618    0.0000 C   0  0  0  0  0  0  0  0  0  0  0  0
    7.5572   -7.1868    0.0000 C   0  0  0  0  0  0  0  0  0  0  0  0
    6.8427   -7.5993    0.0000 C   0  0  0  0  0  0  0  0  0  0  0  0
    6.1283   -7.1868    0.0000 C   0  0  0  0  0  0  0  0  0  0  0  0
    6.1283   -6.3618    0.0000 C   0  0  0  0  0  0  0  0  0  0  0  0
    7.5572   -4.7118    0.0000 S   0  0  0  0  0  0  0  0  0  0  0  0
    7.1447   -3.9974    0.0000 O   0  0  0  0  0  0  0  0  0  0  0  0
    7.9697   -5.4263    0.0000 O   0  0  0  0  0  0  0  0  0  0  0  0
    8.2717   -4.2993    0.0000 C   0  0  0  0  0  0  0  0  0  0  0  0
    8.2717   -3.4743    0.0000 C   0  0  0  0  0  0  0  0  0  0  0  0
    8.9862   -3.0618    0.0000 C   0  0  0  0  0  0  0  0  0  0  0  0
    9.7006   -3.4743    0.0000 C   0  0  0  0  0  0  0  0  0  0  0  0
    9.7006   -4.2993    0.0000 C   0  0  0  0  0  0  0  0  0  0  0  0
    8.9862   -4.7118    0.0000 C   0  0  0  0  0  0  0  0  0  0  0  0
    5.4138   -5.9493    0.0000 C   0  0  0  0  0  0  0  0  0  0  0  0
    4.6993   -6.3618    0.0000 C   0  0  0  0  0  0  0  0  0  0  0  0
    1.1270   -8.4243    0.0000 C   0  0  0  0  0  0  0  0  0  0  0  0
    1.5395   -9.1388    0.0000 C   0  0  0  0  0  0  0  0  0  0  0  0
    0.7145   -9.1388    0.0000 C   0  0  0  0  0  0  0  0  0  0  0  0
  1  2  1  0  0  0  0
  2  3  2  0  0  0  0
  2  4  1  0  0  0  0
  4  5  2  0  0  0  0
  5  6  1  0  0  0  0
  6  7  2  0  0  0  0
  7  8  1  0  0  0  0
  8  9  2  0  0  0  0
  4  9  1  0  0  0  0
  9 10  1  0  0  0  0
 10 11  1  0  0  0  0
 11 12  2  0  0  0  0
 11 13  1  0  0  0  0
 13 14  2  0  0  0  0
 14 15  1  0  0  0  0
 15 16  2  0  0  0  0
 16 17  1  0  0  0  0
 17 18  1  0  0  0  0
 18 19  1  0  0  0  0
 19 20  2  0  0  0  0
 20 21  1  0  0  0  0
 21 22  2  0  0  0  0
 22 23  1  0  0  0  0
 23 24  2  0  0  0  0
 19 24  1  0  0  0  0
 18 25  1  0  0  0  0
 25 26  2  0  0  0  0
 25 27  2  0  0  0  0
 25 28  1  0  0  0  0
 28 29  2  0  0  0  0
 29 30  1  0  0  0  0
 30 31  2  0  0  0  0
 31 32  1  0  0  0  0
 32 33  2  0  0  0  0
 28 33  1  0  0  0  0
 16 34  1  0  0  0  0
 34 35  2  0  0  0  0
 13 35  1  0  0  0  0
  7 36  1  0  0  0  0
 36 37  1  0  0  0  0
 37 38  1  0  0  0  0
 36 38  1  0  0  0  0
M  END
> <ID>
CPD_3657

$$$$
CPD_3662
  Mrv1822 09091914012D          

 19 20  0  0  0  0            999 V2000
    2.6606    9.3898    0.0000 C   0  0  0  0  0  0  0  0  0  0  0  0
    2.0773    8.8065    0.0000 C   0  0  0  0  0  0  0  0  0  0  0  0
    1.2804    9.0200    0.0000 O   0  0  0  0  0  0  0  0  0  0  0  0
    2.2908    8.0096    0.0000 N   0  0  0  0  0  0  0  0  0  0  0  0
    1.7074    7.4262    0.0000 C   0  0  0  0  0  0  0  0  0  0  0  0
    1.9210    6.6293    0.0000 C   0  0  0  0  0  0  0  0  0  0  0  0
    1.3376    6.0460    0.0000 C   0  0  0  0  0  0  0  0  0  0  0  0
    0.5407    6.2595    0.0000 C   0  0  0  0  0  0  0  0  0  0  0  0
   -0.0427    5.6761    0.0000 O   0  0  0  0  0  0  0  0  0  0  0  0
    0.1709    4.8792    0.0000 C   0  0  0  0  0  0  0  0  0  0  0  0
    0.9678    4.6657    0.0000 O   0  0  0  0  0  0  0  0  0  0  0  0
   -0.4125    4.2959    0.0000 C   0  0  0  0  0  0  0  0  0  0  0  0
   -0.9959    4.8792    0.0000 C   0  0  0  0  0  0  0  0  0  0  0  0
   -1.7928    4.6657    0.0000 N   0  0  0  0  0  0  0  0  0  0  0  0
    0.1709    3.7125    0.0000 C   0  0  0  0  0  0  0  0  0  0  0  0
   -0.4125    3.1291    0.0000 C   0  0  0  0  0  0  0  0  0  0  0  0
   -0.9959    3.7125    0.0000 C   0  0  0  0  0  0  0  0  0  0  0  0
    0.3272    7.0564    0.0000 C   0  0  0  0  0  0  0  0  0  0  0  0
    0.9105    7.6397    0.0000 C   0  0  0  0  0  0  0  0  0  0  0  0
  1  2  1  0  0  0  0
  2  3  2  0  0  0  0
  2  4  1  0  0  0  0
  4  5  1  0  0  0  0
  5  6  2  0  0  0  0
  6  7  1  0  0  0  0
  7  8  2  0  0  0  0
  8  9  1  0  0  0  0
  9 10  1  0  0  0  0
 10 11  2  0  0  0  0
 10 12  1  0  0  0  0
 12 13  1  0  0  0  0
 13 14  1  0  0  0  0
 12 15  1  0  0  0  0
 15 16  1  0  0  0  0
 16 17  1  0  0  0  0
 12 17  1  0  0  0  0
  8 18  1  0  0  0  0
 18 19  2  0  0  0  0
  5 19  1  0  0  0  0
M  END
> <ID>
CPD_3662

$$$$
CPD_3667
  Mrv1822 09091914012D          

 23 25  0  0  0  0            999 V2000
   -1.5312   -3.7353    0.0000 N   0  0  0  0  0  0  0  0  0  0  0  0
   -0.7343   -3.5218    0.0000 C   0  0  0  0  0  0  0  0  0  0  0  0
   -0.1510   -4.1051    0.0000 C   0  0  0  0  0  0  0  0  0  0  0  0
    0.4324   -4.6885    0.0000 C   0  0  0  0  0  0  0  0  0  0  0  0
   -0.1510   -5.2718    0.0000 C   0  0  0  0  0  0  0  0  0  0  0  0
   -0.7343   -4.6885    0.0000 C   0  0  0  0  0  0  0  0  0  0  0  0
    0.4324   -3.5218    0.0000 C   0  0  0  0  0  0  0  0  0  0  0  0
    1.2293   -3.7353    0.0000 O   0  0  0  0  0  0  0  0  0  0  0  0
    0.2189   -2.7249    0.0000 O   0  0  0  0  0  0  0  0  0  0  0  0
    0.8022   -2.1415    0.0000 C   0  0  0  0  0  0  0  0  0  0  0  0
    0.5887   -1.3446    0.0000 C   0  0  0  0  0  0  0  0  0  0  0  0
   -0.2082   -1.1311    0.0000 C   0  0  0  0  0  0  0  0  0  0  0  0
   -0.4217   -0.3342    0.0000 C   0  0  0  0  0  0  0  0  0  0  0  0
   -1.2186   -0.1207    0.0000 C   0  0  0  0  0  0  0  0  0  0  0  0
   -1.4321    0.6762    0.0000 C   0  0  0  0  0  0  0  0  0  0  0  0
   -0.8488    1.2596    0.0000 C   0  0  0  0  0  0  0  0  0  0  0  0
   -0.0519    1.0460    0.0000 C   0  0  0  0  0  0  0  0  0  0  0  0
    0.1616    0.2492    0.0000 C   0  0  0  0  0  0  0  0  0  0  0  0
    1.1721   -0.7613    0.0000 C   0  0  0  0  0  0  0  0  0  0  0  0
    1.9689   -0.9748    0.0000 C   0  0  0  0  0  0  0  0  0  0  0  0
    2.1825   -1.7717    0.0000 C   0  0  0  0  0  0  0  0  0  0  0  0
    2.9794   -1.9852    0.0000 O   0  0  0  0  0  0  0  0  0  0  0  0
    1.5991   -2.3550    0.0000 C   0  0  0  0  0  0  0  0  0  0  0  0
  1  2  1  0  0  0  0
  2  3  1  0  0  0  0
  3  4  1  0  0  0  0
  4  5  1  0  0  0  0
  5  6  1  0  0  0  0
  3  6  1  0  0  0  0
  3  7  1  0  0  0  0
  7  8  2  0  0  0  0
  7  9  1  0  0  0  0
  9 10  1  0  0  0  0
 10 11  2  0  0  0  0
 11 12  1  0  0  0  0
 12 13  1  0  0  0  0
 13 14  2  0  0  0  0
 14 15  1  0  0  0  0
 15 16  2  0  0  0  0
 16 17  1  0  0  0  0
 17 18  2  0  0  0  0
 13 18  1  0  0  0  0
 11 19  1  0  0  0  0
 19 20  2  0  0  0  0
 20 21  1  0  0  0  0
 21 22  1  0  0  0  0
 21 23  2  0  0  0  0
 10 23  1  0  0  0  0
M  END
> <ID>
CPD_3667

$$$$
CPD_3672
  Mrv1822 09091914012D          

 22 22  0  0  0  0            999 V2000
    3.6829   -8.2500    0.0000 C   0  0  0  0  0  0  0  0  0  0  0  0
    4.3974   -8.6625    0.0000 C   0  0  0  0  0  0  0  0  0  0  0  0
    5.1118   -8.2500    0.0000 C   0  0  0  0  0  0  0  0  0  0  0  0
    5.8263   -8.6625    0.0000 C   0  0  0  0  0  0  0  0  0  0  0  0
    6.5408   -8.2500    0.0000 O   0  0  0  0  0  0  0  0  0  0  0  0
    7.2552   -8.6625    0.0000 C   0  0  0  0  0  0  0  0  0  0  0  0
    7.9697   -8.2500    0.0000 C   0  0  0  0  0  0  0  0  0  0  0  0
    8.6842   -8.6625    0.0000 O   0  0  0  0  0  0  0  0  0  0  0  0
    9.3987   -8.2500    0.0000 C   0  0  0  0  0  0  0  0  0  0  0  0
   10.1131   -8.6625    0.0000 C   0  0  0  0  0  0  0  0  0  0  0  0
   10.8276   -8.2500    0.0000 O   0  0  0  0  0  0  0  0  0  0  0  0
   11.5421   -8.6625    0.0000 C   0  0  0  0  0  0  0  0  0  0  0  0
   12.2565   -8.2500    0.0000 C   0  0  0  0  0  0  0  0  0  0  0  0
   12.9710   -8.6625    0.0000 O   0  0  0  0  0  0  0  0  0  0  0  0
   13.6855   -8.2500    0.0000 C   0  0  0  0  0  0  0  0  0  0  0  0
   13.6855   -7.4250    0.0000 O   0  0  0  0  0  0  0  0  0  0  0  0
   14.3999   -8.6625    0.0000 C   0  0  0  0  0  0  0  0  0  0  0  0
   13.9874   -9.3770    0.0000 C   0  0  0  0  0  0  0  0  0  0  0  0
   14.3999  -10.0914    0.0000 N   0  0  0  0  0  0  0  0  0  0  0  0
   14.8124   -7.9480    0.0000 C   0  0  0  0  0  0  0  0  0  0  0  0
   15.5269   -8.3605    0.0000 C   0  0  0  0  0  0  0  0  0  0  0  0
   15.1144   -9.0750    0.0000 C   0  0  0  0  0  0  0  0  0  0  0  0
  1  2  1  0  0  0  0
  2  3  1  0  0  0  0
  3  4  1  0  0  0  0
  4  5  1  0  0  0  0
  5  6  1  0  0  0  0
  6  7  1  0  0  0  0
  7  8  1  0  0  0  0
  8  9  1  0  0  0  0
  9 10  1  0  0  0  0
 10 11  1  0  0  0  0
 11 12  1  0  0  0  0
 12 13  1  0  0  0  0
 13 14  1  0  0  0  0
 14 15  1  0  0  0  0
 15 16  2  0  0  0  0
 15 17  1  0  0  0  0
 17 18  1  0  0  0  0
 18 19  1  0  0  0  0
 17 20  1  0  0  0  0
 20 21  1  0  0  0  0
 21 22  1  0  0  0  0
 17 22  1  0  0  0  0
M  END
> <ID>
CPD_3672

$$$$
CPD_3677
  Mrv1822 09091914012D          

 33 36  0  0  0  0            999 V2000
    5.7158   -4.9500    0.0000 C   0  0  0  0  0  0  0  0  0  0  0  0
    5.0013   -5.3625    0.0000 C   0  0  0  0  0  0  0  0  0  0  0  0
    4.2868   -4.9500    0.0000 C   0  0  0  0  0  0  0  0  0  0  0  0
    3.5724   -5.3625    0.0000 C   0  0  0  0  0  0  0  0  0  0  0  0
    2.8579   -4.9500    0.0000 N   0  0  0  0  0  0  0  0  0  0  0  0
    2.8579   -4.1250    0.0000 C   0  0  0  0  0  0  0  0  0  0  0  0
    2.1434   -3.7125    0.0000 C   0  0  0  0  0  0  0  0  0  0  0  0
    2.1434   -2.8875    0.0000 O   0  0  0  0  0  0  0  0  0  0  0  0
    1.4289   -2.4750    0.0000 C   0  0  0  0  0  0  0  0  0  0  0  0
    0.7145   -2.8875    0.0000 O   0  0  0  0  0  0  0  0  0  0  0  0
    1.4289   -1.6500    0.0000 C   0  0  0  0  0  0  0  0  0  0  0  0
    0.7145   -1.2375    0.0000 C   0  0  0  0  0  0  0  0  0  0  0  0
    0.7145   -0.4125    0.0000 N   0  0  0  0  0  0  0  0  0  0  0  0
    0.0000    0.0000    0.0000 C   0  0  0  0  0  0  0  0  0  0  0  0
   -0.7145   -0.4125    0.0000 C   0  0  0  0  0  0  0  0  0  0  0  0
   -1.4289    0.0000    0.0000 C   0  0  0  0  0  0  0  0  0  0  0  0
   -1.4289    0.8250    0.0000 C   0  0  0  0  0  0  0  0  0  0  0  0
   -2.1434    1.2375    0.0000 O   0  0  0  0  0  0  0  0  0  0  0  0
   -2.8579    0.8250    0.0000 C   0  0  0  0  0  0  0  0  0  0  0  0
   -0.7145    1.2375    0.0000 C   0  0  0  0  0  0  0  0  0  0  0  0
   -0.7145    2.0625    0.0000 O   0  0  0  0  0  0  0  0  0  0  0  0
    0.0000    2.4750    0.0000 C   0  0  0  0  0  0  0  0  0  0  0  0
    0.0000    0.8250    0.0000 C   0  0  0  0  0  0  0  0  0  0  0  0
    1.4289    0.0000    0.0000 C   0  0  0  0  0  0  0  0  0  0  0  0
    1.4289    0.8250    0.0000 O   0  0  0  0  0  0  0  0  0  0  0  0
    2.1434   -0.4125    0.0000 C   0  0  0  0  0  0  0  0  0  0  0  0
    2.8579    0.0000    0.0000 C   0  0  0  0  0  0  0  0  0  0  0  0
    3.5724   -0.4125    0.0000 C   0  0  0  0  0  0  0  0  0  0  0  0
    3.5724   -1.2375    0.0000 C   0  0  0  0  0  0  0  0  0  0  0  0
    2.8579   -1.6500    0.0000 C   0  0  0  0  0  0  0  0  0  0  0  0
    2.1434   -1.2375    0.0000 C   0  0  0  0  0  0  0  0  0  0  0  0
    3.5724   -3.7125    0.0000 C   0  0  0  0  0  0  0  0  0  0  0  0
    4.2868   -4.1250    0.0000 C   0  0  0  0  0  0  0  0  0  0  0  0
  1  2  1  0  0  0  0
  2  3  1  0  0  0  0
  3  4  2  0  0  0  0
  4  5  1  0  0  0  0
  5  6  2  0  0  0  0
  6  7  1  0  0  0  0
  7  8  1  0  0  0  0
  8  9  1  0  0  0  0
  9 10  2  0  0  0  0
  9 11  1  0  0  0  0
 11 12  2  0  0  0  0
 12 13  1  0  0  0  0
 13 14  1  0  0  0  0
 14 15  2  0  0  0  0
 15 16  1  0  0  0  0
 16 17  2  0  0  0  0
 17 18  1  0  0  0  0
 18 19  1  0  0  0  0
 17 20  1  0  0  0  0
 20 21  1  0  0  0  0
 21 22  1  0  0  0  0
 20 23  2  0  0  0  0
 14 23  1  0  0  0  0
 13 24  1  0  0  0  0
 24 25  2  0  0  0  0
 24 26  1  0  0  0  0
 26 27  2  0  0  0  0
 27 28  1  0  0  0  0
 28 29  2  0  0  0  0
 29 30  1  0  0  0  0
 30 31  2  0  0  0  0
 11 31  1  0  0  0  0
 26 31  1  0  0  0  0
  6 32  1  0  0  0  0
 32 33  2  0  0  0  0
  3 33  1  0  0  0  0
M  END
> <ID>
CPD_3677

$$$$
CPD_3682
  Mrv1822 09091914012D          

 28 30  0  0  0  0            999 V2000
    1.7756    2.2296    0.0000 C   0  0  0  0  0  0  0  0  0  0  0  0
    0.9586    2.1148    0.0000 C   0  0  0  0  0  0  0  0  0  0  0  0
    0.4507    2.7649    0.0000 C   0  0  0  0  0  0  0  0  0  0  0  0
   -0.2490    3.2021    0.0000 C   0  0  0  0  0  0  0  0  0  0  0  0
   -0.2202    4.0266    0.0000 C   0  0  0  0  0  0  0  0  0  0  0  0
    0.5083    4.4139    0.0000 C   0  0  0  0  0  0  0  0  0  0  0  0
    1.2079    3.9767    0.0000 N   0  0  0  0  0  0  0  0  0  0  0  0
    1.1791    3.1522    0.0000 C   0  0  0  0  0  0  0  0  0  0  0  0
   -0.1014    2.1518    0.0000 C   0  0  0  0  0  0  0  0  0  0  0  0
   -0.9083    2.3234    0.0000 O   0  0  0  0  0  0  0  0  0  0  0  0
    0.1536    1.3672    0.0000 O   0  0  0  0  0  0  0  0  0  0  0  0
   -0.3984    0.7541    0.0000 C   0  0  0  0  0  0  0  0  0  0  0  0
   -0.1435   -0.0305    0.0000 C   0  0  0  0  0  0  0  0  0  0  0  0
   -0.6284   -0.6979    0.0000 C   0  0  0  0  0  0  0  0  0  0  0  0
   -0.1435   -1.3654    0.0000 N   0  0  0  0  0  0  0  0  0  0  0  0
   -0.3984   -2.1500    0.0000 C   0  0  0  0  0  0  0  0  0  0  0  0
    0.1536   -2.7631    0.0000 O   0  0  0  0  0  0  0  0  0  0  0  0
   -1.2054   -2.3215    0.0000 O   0  0  0  0  0  0  0  0  0  0  0  0
   -1.4604   -3.1062    0.0000 C   0  0  0  0  0  0  0  0  0  0  0  0
   -1.7153   -3.8908    0.0000 C   0  0  0  0  0  0  0  0  0  0  0  0
   -2.2450   -2.8512    0.0000 C   0  0  0  0  0  0  0  0  0  0  0  0
   -0.6757   -3.3611    0.0000 C   0  0  0  0  0  0  0  0  0  0  0  0
    0.6411   -1.1104    0.0000 C   0  0  0  0  0  0  0  0  0  0  0  0
    0.6411   -0.2854    0.0000 C   0  0  0  0  0  0  0  0  0  0  0  0
    1.3556    0.1271    0.0000 C   0  0  0  0  0  0  0  0  0  0  0  0
    2.0701   -0.2854    0.0000 C   0  0  0  0  0  0  0  0  0  0  0  0
    2.0701   -1.1104    0.0000 C   0  0  0  0  0  0  0  0  0  0  0  0
    1.3556   -1.5229    0.0000 C   0  0  0  0  0  0  0  0  0  0  0  0
  1  2  1  0  0  0  0
  2  3  1  0  0  0  0
  3  4  1  0  0  0  0
  4  5  1  0  0  0  0
  5  6  1  0  0  0  0
  6  7  1  0  0  0  0
  7  8  1  0  0  0  0
  3  8  1  0  0  0  0
  3  9  1  0  0  0  0
  9 10  2  0  0  0  0
  9 11  1  0  0  0  0
 11 12  1  0  0  0  0
 12 13  1  0  0  0  0
 13 14  2  0  0  0  0
 14 15  1  0  0  0  0
 15 16  1  0  0  0  0
 16 17  2  0  0  0  0
 16 18  1  0  0  0  0
 18 19  1  0  0  0  0
 19 20  1  0  0  0  0
 19 21  1  0  0  0  0
 19 22  1  0  0  0  0
 15 23  1  0  0  0  0
 23 24  2  0  0  0  0
 13 24  1  0  0  0  0
 24 25  1  0  0  0  0
 25 26  2  0  0  0  0
 26 27  1  0  0  0  0
 27 28  2  0  0  0  0
 23 28  1  0  0  0  0
M  END
> <ID>
CPD_3682

$$$$
CPD_3687
  Mrv1822 09091914012D          

 25 27  0  0  0  0            999 V2000
    2.0572    2.5512    0.0000 C   0  0  0  0  0  0  0  0  0  0  0  0
    1.5269    1.9192    0.0000 C   0  0  0  0  0  0  0  0  0  0  0  0
    0.7145    2.0625    0.0000 C   0  0  0  0  0  0  0  0  0  0  0  0
   -0.0980    1.9192    0.0000 C   0  0  0  0  0  0  0  0  0  0  0  0
   -0.6283    2.5512    0.0000 C   0  0  0  0  0  0  0  0  0  0  0  0
   -0.3461    3.3265    0.0000 C   0  0  0  0  0  0  0  0  0  0  0  0
    0.4663    3.4697    0.0000 N   0  0  0  0  0  0  0  0  0  0  0  0
    0.9966    2.8377    0.0000 C   0  0  0  0  0  0  0  0  0  0  0  0
    0.7145    1.2375    0.0000 C   0  0  0  0  0  0  0  0  0  0  0  0
    1.4289    0.8250    0.0000 O   0  0  0  0  0  0  0  0  0  0  0  0
    0.0000    0.8250    0.0000 O   0  0  0  0  0  0  0  0  0  0  0  0
    0.0000   -0.0000    0.0000 C   0  0  0  0  0  0  0  0  0  0  0  0
   -0.7145   -0.4125    0.0000 C   0  0  0  0  0  0  0  0  0  0  0  0
   -0.7145   -1.2375    0.0000 C   0  0  0  0  0  0  0  0  0  0  0  0
    0.0000   -1.6500    0.0000 C   0  0  0  0  0  0  0  0  0  0  0  0
    0.0000   -2.4750    0.0000 C   0  0  0  0  0  0  0  0  0  0  0  0
    0.7145   -2.8875    0.0000 C   0  0  0  0  0  0  0  0  0  0  0  0
   -0.7145   -2.8875    0.0000 O   0  0  0  0  0  0  0  0  0  0  0  0
    0.7145   -1.2375    0.0000 C   0  0  0  0  0  0  0  0  0  0  0  0
    0.7145   -0.4125    0.0000 C   0  0  0  0  0  0  0  0  0  0  0  0
    1.4289   -0.0000    0.0000 N   0  0  0  0  0  0  0  0  0  0  0  0
    2.1434   -0.4125    0.0000 C   0  0  0  0  0  0  0  0  0  0  0  0
    2.8579   -0.0000    0.0000 O   0  0  0  0  0  0  0  0  0  0  0  0
    2.1434   -1.2375    0.0000 C   0  0  0  0  0  0  0  0  0  0  0  0
    1.4289   -1.6500    0.0000 C   0  0  0  0  0  0  0  0  0  0  0  0
  1  2  1  0  0  0  0
  2  3  1  0  0  0  0
  3  4  1  0  0  0  0
  4  5  1  0  0  0  0
  5  6  1  0  0  0  0
  6  7  1  0  0  0  0
  7  8  1  0  0  0  0
  3  8  1  0  0  0  0
  3  9  1  0  0  0  0
  9 10  2  0  0  0  0
  9 11  1  0  0  0  0
 11 12  1  0  0  0  0
 12 13  2  0  0  0  0
 13 14  1  0  0  0  0
 14 15  2  0  0  0  0
 15 16  1  0  0  0  0
 16 17  1  0  0  0  0
 16 18  2  0  0  0  0
 15 19  1  0  0  0  0
 19 20  2  0  0  0  0
 12 20  1  0  0  0  0
 20 21  1  0  0  0  0
 21 22  2  0  0  0  0
 22 23  1  0  0  0  0
 22 24  1  0  0  0  0
 24 25  2  0  0  0  0
 19 25  1  0  0  0  0
M  END
> <ID>
CPD_3687

$$$$
CPD_3692
  Mrv1822 09091914012D          

 25 26  0  0  0  0            999 V2000
   -1.4979   -1.6768    0.0000 C   0  0  0  0  0  0  0  0  0  0  0  0
   -1.1623   -2.4305    0.0000 C   0  0  0  0  0  0  0  0  0  0  0  0
   -0.3553   -2.6020    0.0000 N   0  0  0  0  0  0  0  0  0  0  0  0
   -0.2691   -3.4225    0.0000 C   0  0  0  0  0  0  0  0  0  0  0  0
    0.4454   -3.8350    0.0000 C   0  0  0  0  0  0  0  0  0  0  0  0
    1.1598   -3.4225    0.0000 O   0  0  0  0  0  0  0  0  0  0  0  0
    1.8743   -3.8350    0.0000 C   0  0  0  0  0  0  0  0  0  0  0  0
    1.8743   -4.6600    0.0000 O   0  0  0  0  0  0  0  0  0  0  0  0
    2.5888   -3.4225    0.0000 C   0  0  0  0  0  0  0  0  0  0  0  0
    3.3033   -3.8350    0.0000 C   0  0  0  0  0  0  0  0  0  0  0  0
    4.0177   -3.4225    0.0000 C   0  0  0  0  0  0  0  0  0  0  0  0
    4.1040   -2.6020    0.0000 C   0  0  0  0  0  0  0  0  0  0  0  0
    4.9109   -2.4305    0.0000 C   0  0  0  0  0  0  0  0  0  0  0  0
    5.3234   -3.1450    0.0000 C   0  0  0  0  0  0  0  0  0  0  0  0
    4.7714   -3.7581    0.0000 N   0  0  0  0  0  0  0  0  0  0  0  0
    4.9429   -4.5650    0.0000 C   0  0  0  0  0  0  0  0  0  0  0  0
    4.3298   -5.1171    0.0000 O   0  0  0  0  0  0  0  0  0  0  0  0
    5.7276   -4.8200    0.0000 O   0  0  0  0  0  0  0  0  0  0  0  0
    6.3406   -4.2679    0.0000 C   0  0  0  0  0  0  0  0  0  0  0  0
    6.9537   -3.7159    0.0000 C   0  0  0  0  0  0  0  0  0  0  0  0
    6.8927   -4.8810    0.0000 C   0  0  0  0  0  0  0  0  0  0  0  0
    5.7886   -3.6548    0.0000 C   0  0  0  0  0  0  0  0  0  0  0  0
   -1.0228   -3.7581    0.0000 C   0  0  0  0  0  0  0  0  0  0  0  0
   -1.1943   -4.5650    0.0000 C   0  0  0  0  0  0  0  0  0  0  0  0
   -1.5748   -3.1450    0.0000 O   0  0  0  0  0  0  0  0  0  0  0  0
  1  2  1  0  0  0  0
  2  3  2  0  0  0  0
  3  4  1  0  0  0  0
  4  5  1  0  0  0  0
  5  6  1  0  0  0  0
  6  7  1  0  0  0  0
  7  8  2  0  0  0  0
  7  9  1  0  0  0  0
  9 10  1  0  0  0  0
 10 11  1  0  0  0  0
 11 12  1  0  0  0  0
 12 13  1  0  0  0  0
 13 14  1  0  0  0  0
 14 15  1  0  0  0  0
 11 15  1  0  0  0  0
 15 16  1  0  0  0  0
 16 17  2  0  0  0  0
 16 18  1  0  0  0  0
 18 19  1  0  0  0  0
 19 20  1  0  0  0  0
 19 21  1  0  0  0  0
 19 22  1  0  0  0  0
  4 23  2  0  0  0  0
 23 24  1  0  0  0  0
 23 25  1  0  0  0  0
  2 25  1  0  0  0  0
M  END
> <ID>
CPD_3692

$$$$
CPD_3697
  Mrv1822 09091914012D          

 30 32  0  0  0  0            999 V2000
   -4.9226   -4.5944    0.0000 C   0  0  0  0  0  0  0  0  0  0  0  0
   -4.7511   -3.7874    0.0000 C   0  0  0  0  0  0  0  0  0  0  0  0
   -3.9441   -3.9589    0.0000 C   0  0  0  0  0  0  0  0  0  0  0  0
   -5.5580   -3.6159    0.0000 C   0  0  0  0  0  0  0  0  0  0  0  0
   -4.5795   -2.9804    0.0000 O   0  0  0  0  0  0  0  0  0  0  0  0
   -3.7949   -2.7255    0.0000 C   0  0  0  0  0  0  0  0  0  0  0  0
   -3.1818   -3.2775    0.0000 O   0  0  0  0  0  0  0  0  0  0  0  0
   -3.6234   -1.9185    0.0000 N   0  0  0  0  0  0  0  0  0  0  0  0
   -4.1754   -1.3054    0.0000 C   0  0  0  0  0  0  0  0  0  0  0  0
   -3.7629   -0.5910    0.0000 C   0  0  0  0  0  0  0  0  0  0  0  0
   -2.9559   -0.7625    0.0000 C   0  0  0  0  0  0  0  0  0  0  0  0
   -2.8697   -1.5830    0.0000 C   0  0  0  0  0  0  0  0  0  0  0  0
   -2.1552   -1.9955    0.0000 C   0  0  0  0  0  0  0  0  0  0  0  0
   -1.4408   -1.5830    0.0000 C   0  0  0  0  0  0  0  0  0  0  0  0
   -0.7263   -1.9955    0.0000 C   0  0  0  0  0  0  0  0  0  0  0  0
   -0.7263   -2.8205    0.0000 O   0  0  0  0  0  0  0  0  0  0  0  0
   -0.0118   -1.5830    0.0000 O   0  0  0  0  0  0  0  0  0  0  0  0
    0.7027   -1.9955    0.0000 C   0  0  0  0  0  0  0  0  0  0  0  0
    1.5151   -2.1387    0.0000 C   0  0  0  0  0  0  0  0  0  0  0  0
    1.7973   -2.9140    0.0000 C   0  0  0  0  0  0  0  0  0  0  0  0
    1.2670   -3.5460    0.0000 O   0  0  0  0  0  0  0  0  0  0  0  0
    0.4545   -3.4027    0.0000 C   0  0  0  0  0  0  0  0  0  0  0  0
    0.1724   -2.6275    0.0000 C   0  0  0  0  0  0  0  0  0  0  0  0
    0.9848   -1.2202    0.0000 C   0  0  0  0  0  0  0  0  0  0  0  0
    0.4545   -0.5882    0.0000 C   0  0  0  0  0  0  0  0  0  0  0  0
    0.7367    0.1870    0.0000 C   0  0  0  0  0  0  0  0  0  0  0  0
    1.5492    0.3303    0.0000 C   0  0  0  0  0  0  0  0  0  0  0  0
    1.8313    1.1055    0.0000 Br  0  0  0  0  0  0  0  0  0  0  0  0
    2.0795   -0.3017    0.0000 C   0  0  0  0  0  0  0  0  0  0  0  0
    1.7973   -1.0770    0.0000 C   0  0  0  0  0  0  0  0  0  0  0  0
  1  2  1  0  0  0  0
  2  3  1  0  0  0  0
  2  4  1  0  0  0  0
  2  5  1  0  0  0  0
  5  6  1  0  0  0  0
  6  7  2  0  0  0  0
  6  8  1  0  0  0  0
  8  9  1  0  0  0  0
  9 10  1  0  0  0  0
 10 11  1  0  0  0  0
 11 12  1  0  0  0  0
  8 12  1  0  0  0  0
 12 13  1  0  0  0  0
 13 14  1  0  0  0  0
 14 15  1  0  0  0  0
 15 16  2  0  0  0  0
 15 17  1  0  0  0  0
 17 18  1  0  0  0  0
 18 19  1  0  0  0  0
 19 20  1  0  0  0  0
 20 21  1  0  0  0  0
 21 22  1  0  0  0  0
 22 23  1  0  0  0  0
 18 23  1  0  0  0  0
 18 24  1  0  0  0  0
 24 25  2  0  0  0  0
 25 26  1  0  0  0  0
 26 27  2  0  0  0  0
 27 28  1  0  0  0  0
 27 29  1  0  0  0  0
 29 30  2  0  0  0  0
 24 30  1  0  0  0  0
M  END
> <ID>
CPD_3697

$$$$
CPD_3702
  Mrv1822 09091914012D          

 22 22  0  0  0  0            999 V2000
   -0.5662   -4.8202    0.0000 C   0  0  0  0  0  0  0  0  0  0  0  0
    0.1483   -5.2327    0.0000 C   0  0  0  0  0  0  0  0  0  0  0  0
    0.8628   -4.8202    0.0000 C   0  0  0  0  0  0  0  0  0  0  0  0
    1.5772   -5.2327    0.0000 C   0  0  0  0  0  0  0  0  0  0  0  0
    1.5772   -6.0577    0.0000 C   0  0  0  0  0  0  0  0  0  0  0  0
    2.2917   -4.8202    0.0000 O   0  0  0  0  0  0  0  0  0  0  0  0
    3.0062   -5.2327    0.0000 C   0  0  0  0  0  0  0  0  0  0  0  0
    3.0062   -6.0577    0.0000 O   0  0  0  0  0  0  0  0  0  0  0  0
    3.7206   -4.8202    0.0000 C   0  0  0  0  0  0  0  0  0  0  0  0
    4.4351   -5.2327    0.0000 C   0  0  0  0  0  0  0  0  0  0  0  0
    5.1496   -4.8202    0.0000 C   0  0  0  0  0  0  0  0  0  0  0  0
    5.2358   -3.9997    0.0000 C   0  0  0  0  0  0  0  0  0  0  0  0
    6.0428   -3.8282    0.0000 C   0  0  0  0  0  0  0  0  0  0  0  0
    6.4553   -4.5427    0.0000 C   0  0  0  0  0  0  0  0  0  0  0  0
    5.9033   -5.1558    0.0000 N   0  0  0  0  0  0  0  0  0  0  0  0
    6.0748   -5.9627    0.0000 C   0  0  0  0  0  0  0  0  0  0  0  0
    5.4617   -6.5148    0.0000 O   0  0  0  0  0  0  0  0  0  0  0  0
    6.8594   -6.2177    0.0000 O   0  0  0  0  0  0  0  0  0  0  0  0
    7.4725   -5.6656    0.0000 C   0  0  0  0  0  0  0  0  0  0  0  0
    8.0856   -5.1136    0.0000 C   0  0  0  0  0  0  0  0  0  0  0  0
    8.0245   -6.2787    0.0000 C   0  0  0  0  0  0  0  0  0  0  0  0
    6.9205   -5.0526    0.0000 C   0  0  0  0  0  0  0  0  0  0  0  0
  1  2  1  0  0  0  0
  2  3  1  0  0  0  0
  3  4  1  0  0  0  0
  4  5  1  0  0  0  0
  4  6  1  0  0  0  0
  6  7  1  0  0  0  0
  7  8  2  0  0  0  0
  7  9  1  0  0  0  0
  9 10  1  0  0  0  0
 10 11  1  0  0  0  0
 11 12  1  0  0  0  0
 12 13  1  0  0  0  0
 13 14  1  0  0  0  0
 14 15  1  0  0  0  0
 11 15  1  0  0  0  0
 15 16  1  0  0  0  0
 16 17  2  0  0  0  0
 16 18  1  0  0  0  0
 18 19  1  0  0  0  0
 19 20  1  0  0  0  0
 19 21  1  0  0  0  0
 19 22  1  0  0  0  0
M  END
> <ID>
CPD_3702

$$$$
CPD_3707
  Mrv1822 09091914012D          

 25 28  0  0  0  0            999 V2000
    3.6698   -2.9068    0.0000 Cl  0  0  0  0  0  0  0  0  0  0  0  0
    2.8448   -2.9068    0.0000 C   0  0  0  0  0  0  0  0  0  0  0  0
    2.4323   -3.6213    0.0000 C   0  0  0  0  0  0  0  0  0  0  0  0
    1.6073   -3.6213    0.0000 N   0  0  0  0  0  0  0  0  0  0  0  0
    1.1948   -2.9068    0.0000 C   0  0  0  0  0  0  0  0  0  0  0  0
    0.3698   -2.9068    0.0000 O   0  0  0  0  0  0  0  0  0  0  0  0
   -0.0427   -2.1923    0.0000 C   0  0  0  0  0  0  0  0  0  0  0  0
    0.3698   -1.4779    0.0000 C   0  0  0  0  0  0  0  0  0  0  0  0
    1.1948   -1.4779    0.0000 O   0  0  0  0  0  0  0  0  0  0  0  0
    1.6073   -2.1923    0.0000 C   0  0  0  0  0  0  0  0  0  0  0  0
    2.4323   -2.1923    0.0000 C   0  0  0  0  0  0  0  0  0  0  0  0
    2.8448   -1.4779    0.0000 C   0  0  0  0  0  0  0  0  0  0  0  0
    2.4323   -0.7634    0.0000 O   0  0  0  0  0  0  0  0  0  0  0  0
    3.6698   -1.4779    0.0000 O   0  0  0  0  0  0  0  0  0  0  0  0
    4.0823   -0.7634    0.0000 C   0  0  0  0  0  0  0  0  0  0  0  0
    4.9073   -0.7634    0.0000 C   0  0  0  0  0  0  0  0  0  0  0  0
    5.3922   -0.0960    0.0000 C   0  0  0  0  0  0  0  0  0  0  0  0
    6.1768   -0.3509    0.0000 C   0  0  0  0  0  0  0  0  0  0  0  0
    6.8913    0.0616    0.0000 C   0  0  0  0  0  0  0  0  0  0  0  0
    7.6058   -0.3509    0.0000 C   0  0  0  0  0  0  0  0  0  0  0  0
    7.6058   -1.1759    0.0000 C   0  0  0  0  0  0  0  0  0  0  0  0
    6.8913   -1.5884    0.0000 C   0  0  0  0  0  0  0  0  0  0  0  0
    6.8913   -2.4134    0.0000 Br  0  0  0  0  0  0  0  0  0  0  0  0
    6.1768   -1.1759    0.0000 C   0  0  0  0  0  0  0  0  0  0  0  0
    5.3922   -1.4308    0.0000 O   0  0  0  0  0  0  0  0  0  0  0  0
  1  2  1  0  0  0  0
  2  3  2  0  0  0  0
  3  4  1  0  0  0  0
  4  5  2  0  0  0  0
  5  6  1  0  0  0  0
  6  7  1  0  0  0  0
  7  8  1  0  0  0  0
  8  9  1  0  0  0  0
  9 10  1  0  0  0  0
  5 10  1  0  0  0  0
 10 11  2  0  0  0  0
  2 11  1  0  0  0  0
 11 12  1  0  0  0  0
 12 13  2  0  0  0  0
 12 14  1  0  0  0  0
 14 15  1  0  0  0  0
 15 16  1  0  0  0  0
 16 17  1  0  0  0  0
 17 18  1  0  0  0  0
 18 19  2  0  0  0  0
 19 20  1  0  0  0  0
 20 21  2  0  0  0  0
 21 22  1  0  0  0  0
 22 23  1  0  0  0  0
 22 24  2  0  0  0  0
 18 24  1  0  0  0  0
 24 25  1  0  0  0  0
 16 25  1  0  0  0  0
M  END
> <ID>
CPD_3707

$$$$
CPD_3712
  Mrv1822 09091914012D          

 23 25  0  0  0  0            999 V2000
   -0.7145    3.7125    0.0000 C   0  0  0  0  0  0  0  0  0  0  0  0
    0.0000    3.3000    0.0000 C   0  0  0  0  0  0  0  0  0  0  0  0
    0.7145    3.7125    0.0000 C   0  0  0  0  0  0  0  0  0  0  0  0
    0.7145    4.5375    0.0000 Br  0  0  0  0  0  0  0  0  0  0  0  0
    1.4289    3.3000    0.0000 C   0  0  0  0  0  0  0  0  0  0  0  0
    2.1434    3.7125    0.0000 O   0  0  0  0  0  0  0  0  0  0  0  0
    1.4289    2.4750    0.0000 N   0  0  0  0  0  0  0  0  0  0  0  0
    0.7145    2.0625    0.0000 C   0  0  0  0  0  0  0  0  0  0  0  0
    0.7145    1.2375    0.0000 O   0  0  0  0  0  0  0  0  0  0  0  0
    1.4289    0.8250    0.0000 C   0  0  0  0  0  0  0  0  0  0  0  0
    2.1434    1.2375    0.0000 O   0  0  0  0  0  0  0  0  0  0  0  0
    1.4289    0.0000    0.0000 C   0  0  0  0  0  0  0  0  0  0  0  0
    2.1434   -0.4125    0.0000 C   0  0  0  0  0  0  0  0  0  0  0  0
    2.8579    0.0000    0.0000 O   0  0  0  0  0  0  0  0  0  0  0  0
    3.5724   -0.4125    0.0000 C   0  0  0  0  0  0  0  0  0  0  0  0
    3.5724   -1.2375    0.0000 C   0  0  0  0  0  0  0  0  0  0  0  0
    2.8579   -1.6500    0.0000 O   0  0  0  0  0  0  0  0  0  0  0  0
    2.1434   -1.2375    0.0000 C   0  0  0  0  0  0  0  0  0  0  0  0
    1.4289   -1.6500    0.0000 N   0  0  0  0  0  0  0  0  0  0  0  0
    0.7145   -1.2375    0.0000 C   0  0  0  0  0  0  0  0  0  0  0  0
    0.7145   -0.4125    0.0000 C   0  0  0  0  0  0  0  0  0  0  0  0
    0.0000   -0.0000    0.0000 Cl  0  0  0  0  0  0  0  0  0  0  0  0
    0.0000    2.4750    0.0000 N   0  0  0  0  0  0  0  0  0  0  0  0
  1  2  1  0  0  0  0
  2  3  2  0  0  0  0
  3  4  1  0  0  0  0
  3  5  1  0  0  0  0
  5  6  1  0  0  0  0
  5  7  2  0  0  0  0
  7  8  1  0  0  0  0
  8  9  1  0  0  0  0
  9 10  1  0  0  0  0
 10 11  2  0  0  0  0
 10 12  1  0  0  0  0
 12 13  2  0  0  0  0
 13 14  1  0  0  0  0
 14 15  1  0  0  0  0
 15 16  1  0  0  0  0
 16 17  1  0  0  0  0
 17 18  1  0  0  0  0
 13 18  1  0  0  0  0
 18 19  2  0  0  0  0
 19 20  1  0  0  0  0
 20 21  2  0  0  0  0
 12 21  1  0  0  0  0
 21 22  1  0  0  0  0
  8 23  2  0  0  0  0
  2 23  1  0  0  0  0
M  END
> <ID>
CPD_3712

$$$$
CPD_3717
  Mrv1822 09091914012D          

 23 25  0  0  0  0            999 V2000
    2.4186    0.9222    0.0000 C   0  0  0  0  0  0  0  0  0  0  0  0
    1.8883    0.2902    0.0000 O   0  0  0  0  0  0  0  0  0  0  0  0
    2.1705   -0.4851    0.0000 C   0  0  0  0  0  0  0  0  0  0  0  0
    2.9829   -0.6283    0.0000 C   0  0  0  0  0  0  0  0  0  0  0  0
    3.2651   -1.4036    0.0000 C   0  0  0  0  0  0  0  0  0  0  0  0
    2.7348   -2.0356    0.0000 C   0  0  0  0  0  0  0  0  0  0  0  0
    3.0170   -2.8108    0.0000 Cl  0  0  0  0  0  0  0  0  0  0  0  0
    1.9223   -1.8923    0.0000 C   0  0  0  0  0  0  0  0  0  0  0  0
    1.6402   -1.1171    0.0000 C   0  0  0  0  0  0  0  0  0  0  0  0
    0.8277   -0.9738    0.0000 O   0  0  0  0  0  0  0  0  0  0  0  0
    0.5455   -0.1986    0.0000 C   0  0  0  0  0  0  0  0  0  0  0  0
    1.0758    0.4334    0.0000 O   0  0  0  0  0  0  0  0  0  0  0  0
   -0.2669   -0.0553    0.0000 C   0  0  0  0  0  0  0  0  0  0  0  0
   -1.0794   -0.1986    0.0000 C   0  0  0  0  0  0  0  0  0  0  0  0
   -1.6097    0.4334    0.0000 C   0  0  0  0  0  0  0  0  0  0  0  0
   -1.3275    1.2087    0.0000 C   0  0  0  0  0  0  0  0  0  0  0  0
   -0.5151    1.3519    0.0000 C   0  0  0  0  0  0  0  0  0  0  0  0
    0.0152    0.7199    0.0000 C   0  0  0  0  0  0  0  0  0  0  0  0
   -0.2669   -0.8803    0.0000 N   0  0  0  0  0  0  0  0  0  0  0  0
    0.4005   -1.3652    0.0000 C   0  0  0  0  0  0  0  0  0  0  0  0
    0.1456   -2.1498    0.0000 C   0  0  0  0  0  0  0  0  0  0  0  0
   -0.6794   -2.1498    0.0000 C   0  0  0  0  0  0  0  0  0  0  0  0
   -0.9344   -1.3652    0.0000 C   0  0  0  0  0  0  0  0  0  0  0  0
  1  2  1  0  0  0  0
  2  3  1  0  0  0  0
  3  4  2  0  0  0  0
  4  5  1  0  0  0  0
  5  6  2  0  0  0  0
  6  7  1  0  0  0  0
  6  8  1  0  0  0  0
  8  9  2  0  0  0  0
  3  9  1  0  0  0  0
  9 10  1  0  0  0  0
 10 11  1  0  0  0  0
 11 12  2  0  0  0  0
 11 13  1  0  0  0  0
 13 14  1  0  0  0  0
 14 15  1  0  0  0  0
 15 16  1  0  0  0  0
 16 17  1  0  0  0  0
 17 18  1  0  0  0  0
 13 18  1  0  0  0  0
 13 19  1  0  0  0  0
 19 20  1  0  0  0  0
 20 21  2  0  0  0  0
 21 22  1  0  0  0  0
 22 23  2  0  0  0  0
 19 23  1  0  0  0  0
M  END
> <ID>
CPD_3717

$$$$
CPD_3722
  Mrv1822 09091914012D          

 24 26  0  0  0  0            999 V2000
    1.4261   -4.7068    0.0000 C   0  0  0  0  0  0  0  0  0  0  0  0
    1.1439   -3.9315    0.0000 O   0  0  0  0  0  0  0  0  0  0  0  0
    1.6742   -3.2995    0.0000 C   0  0  0  0  0  0  0  0  0  0  0  0
    1.3920   -2.5243    0.0000 N   0  0  0  0  0  0  0  0  0  0  0  0
    1.9223   -1.8923    0.0000 C   0  0  0  0  0  0  0  0  0  0  0  0
    1.6402   -1.1171    0.0000 C   0  0  0  0  0  0  0  0  0  0  0  0
    0.8277   -0.9738    0.0000 O   0  0  0  0  0  0  0  0  0  0  0  0
    0.5455   -0.1986    0.0000 C   0  0  0  0  0  0  0  0  0  0  0  0
    1.0758    0.4334    0.0000 O   0  0  0  0  0  0  0  0  0  0  0  0
   -0.2669   -0.0553    0.0000 C   0  0  0  0  0  0  0  0  0  0  0  0
   -1.0794   -0.1986    0.0000 C   0  0  0  0  0  0  0  0  0  0  0  0
   -1.6097    0.4334    0.0000 C   0  0  0  0  0  0  0  0  0  0  0  0
   -1.3275    1.2087    0.0000 C   0  0  0  0  0  0  0  0  0  0  0  0
   -0.5151    1.3519    0.0000 C   0  0  0  0  0  0  0  0  0  0  0  0
    0.0152    0.7199    0.0000 C   0  0  0  0  0  0  0  0  0  0  0  0
   -0.2669   -0.8803    0.0000 N   0  0  0  0  0  0  0  0  0  0  0  0
    0.4005   -1.3652    0.0000 C   0  0  0  0  0  0  0  0  0  0  0  0
    0.1456   -2.1498    0.0000 C   0  0  0  0  0  0  0  0  0  0  0  0
   -0.6794   -2.1498    0.0000 C   0  0  0  0  0  0  0  0  0  0  0  0
   -0.9344   -1.3652    0.0000 C   0  0  0  0  0  0  0  0  0  0  0  0
    2.7348   -2.0356    0.0000 C   0  0  0  0  0  0  0  0  0  0  0  0
    3.2651   -1.4036    0.0000 Cl  0  0  0  0  0  0  0  0  0  0  0  0
    3.0170   -2.8108    0.0000 C   0  0  0  0  0  0  0  0  0  0  0  0
    2.4867   -3.4428    0.0000 C   0  0  0  0  0  0  0  0  0  0  0  0
  1  2  1  0  0  0  0
  2  3  1  0  0  0  0
  3  4  2  0  0  0  0
  4  5  1  0  0  0  0
  5  6  1  0  0  0  0
  6  7  1  0  0  0  0
  7  8  1  0  0  0  0
  8  9  2  0  0  0  0
  8 10  1  0  0  0  0
 10 11  1  0  0  0  0
 11 12  1  0  0  0  0
 12 13  1  0  0  0  0
 13 14  1  0  0  0  0
 14 15  1  0  0  0  0
 10 15  1  0  0  0  0
 10 16  1  0  0  0  0
 16 17  1  0  0  0  0
 17 18  2  0  0  0  0
 18 19  1  0  0  0  0
 19 20  2  0  0  0  0
 16 20  1  0  0  0  0
  5 21  2  0  0  0  0
 21 22  1  0  0  0  0
 21 23  1  0  0  0  0
 23 24  2  0  0  0  0
  3 24  1  0  0  0  0
M  END
> <ID>
CPD_3722

$$$$
CPD_3727
  Mrv1822 09091914012D          

 22 23  0  0  0  0            999 V2000
    0.3121   -3.8590    0.0000 C   0  0  0  0  0  0  0  0  0  0  0  0
    1.0266   -3.4465    0.0000 C   0  0  0  0  0  0  0  0  0  0  0  0
    1.7410   -3.8590    0.0000 C   0  0  0  0  0  0  0  0  0  0  0  0
    2.4555   -3.4465    0.0000 C   0  0  0  0  0  0  0  0  0  0  0  0
    3.1700   -3.8590    0.0000 C   0  0  0  0  0  0  0  0  0  0  0  0
    3.8844   -3.4465    0.0000 O   0  0  0  0  0  0  0  0  0  0  0  0
    4.5989   -3.8590    0.0000 C   0  0  0  0  0  0  0  0  0  0  0  0
    4.5989   -4.6840    0.0000 O   0  0  0  0  0  0  0  0  0  0  0  0
    5.3134   -3.4465    0.0000 C   0  0  0  0  0  0  0  0  0  0  0  0
    5.8437   -2.8145    0.0000 C   0  0  0  0  0  0  0  0  0  0  0  0
    6.6562   -2.9577    0.0000 C   0  0  0  0  0  0  0  0  0  0  0  0
    6.9383   -3.7330    0.0000 C   0  0  0  0  0  0  0  0  0  0  0  0
    6.4080   -4.3650    0.0000 C   0  0  0  0  0  0  0  0  0  0  0  0
    5.5956   -4.2217    0.0000 C   0  0  0  0  0  0  0  0  0  0  0  0
    4.7831   -2.8145    0.0000 N   0  0  0  0  0  0  0  0  0  0  0  0
    3.9601   -2.8720    0.0000 C   0  0  0  0  0  0  0  0  0  0  0  0
    3.6511   -2.1071    0.0000 C   0  0  0  0  0  0  0  0  0  0  0  0
    4.2830   -1.5768    0.0000 C   0  0  0  0  0  0  0  0  0  0  0  0
    4.9827   -2.0140    0.0000 C   0  0  0  0  0  0  0  0  0  0  0  0
    3.1700   -4.6840    0.0000 C   0  0  0  0  0  0  0  0  0  0  0  0
    3.8844   -5.0965    0.0000 O   0  0  0  0  0  0  0  0  0  0  0  0
    2.4555   -5.0965    0.0000 O   0  0  0  0  0  0  0  0  0  0  0  0
  1  2  1  0  0  0  0
  2  3  1  0  0  0  0
  3  4  1  0  0  0  0
  4  5  1  0  0  0  0
  5  6  1  0  0  0  0
  6  7  1  0  0  0  0
  7  8  2  0  0  0  0
  7  9  1  0  0  0  0
  9 10  1  0  0  0  0
 10 11  1  0  0  0  0
 11 12  1  0  0  0  0
 12 13  1  0  0  0  0
 13 14  1  0  0  0  0
  9 14  1  0  0  0  0
  9 15  1  0  0  0  0
 15 16  1  0  0  0  0
 16 17  2  0  0  0  0
 17 18  1  0  0  0  0
 18 19  2  0  0  0  0
 15 19  1  0  0  0  0
  5 20  1  0  0  0  0
 20 21  1  0  0  0  0
 20 22  2  0  0  0  0
M  END
> <ID>
CPD_3727

$$$$
CPD_3732
  Mrv1822 09091914012D          

 23 24  0  0  0  0            999 V2000
   -7.1447   -0.0000    0.0000 C   0  0  0  0  0  0  0  0  0  0  0  0
   -6.4302   -0.4125    0.0000 C   0  0  0  0  0  0  0  0  0  0  0  0
   -5.7158   -0.0000    0.0000 C   0  0  0  0  0  0  0  0  0  0  0  0
   -5.0013   -0.4125    0.0000 C   0  0  0  0  0  0  0  0  0  0  0  0
   -4.2868   -0.0000    0.0000 C   0  0  0  0  0  0  0  0  0  0  0  0
   -3.5724   -0.4125    0.0000 C   0  0  0  0  0  0  0  0  0  0  0  0
   -3.5724   -1.2375    0.0000 N   0  0  0  0  0  0  0  0  0  0  0  0
   -2.8579   -0.0000    0.0000 C   0  0  0  0  0  0  0  0  0  0  0  0
   -2.1434   -0.4125    0.0000 C   0  0  0  0  0  0  0  0  0  0  0  0
   -2.1434   -1.2375    0.0000 O   0  0  0  0  0  0  0  0  0  0  0  0
   -1.4289   -0.0000    0.0000 O   0  0  0  0  0  0  0  0  0  0  0  0
   -0.7145   -0.4125    0.0000 C   0  0  0  0  0  0  0  0  0  0  0  0
   -0.7145   -1.2375    0.0000 C   0  0  0  0  0  0  0  0  0  0  0  0
    0.0000   -1.6500    0.0000 C   0  0  0  0  0  0  0  0  0  0  0  0
    0.0000   -2.4750    0.0000 O   0  0  0  0  0  0  0  0  0  0  0  0
    0.7145   -1.2375    0.0000 O   0  0  0  0  0  0  0  0  0  0  0  0
    0.7145   -0.4125    0.0000 C   0  0  0  0  0  0  0  0  0  0  0  0
    0.0000   -0.0000    0.0000 C   0  0  0  0  0  0  0  0  0  0  0  0
    0.0000    0.8250    0.0000 C   0  0  0  0  0  0  0  0  0  0  0  0
    0.7145    1.2375    0.0000 C   0  0  0  0  0  0  0  0  0  0  0  0
    0.7145    2.0625    0.0000 F   0  0  0  0  0  0  0  0  0  0  0  0
    1.4289    0.8250    0.0000 C   0  0  0  0  0  0  0  0  0  0  0  0
    1.4289   -0.0000    0.0000 C   0  0  0  0  0  0  0  0  0  0  0  0
  1  2  1  0  0  0  0
  2  3  1  0  0  0  0
  3  4  1  0  0  0  0
  4  5  1  0  0  0  0
  5  6  1  0  0  0  0
  6  7  1  0  0  0  0
  6  8  1  0  0  0  0
  8  9  1  0  0  0  0
  9 10  2  0  0  0  0
  9 11  1  0  0  0  0
 11 12  1  0  0  0  0
 12 13  2  0  0  0  0
 13 14  1  0  0  0  0
 14 15  2  0  0  0  0
 14 16  1  0  0  0  0
 16 17  1  0  0  0  0
 17 18  2  0  0  0  0
 12 18  1  0  0  0  0
 18 19  1  0  0  0  0
 19 20  2  0  0  0  0
 20 21  1  0  0  0  0
 20 22  1  0  0  0  0
 22 23  2  0  0  0  0
 17 23  1  0  0  0  0
M  END
> <ID>
CPD_3732

$$$$
CPD_3737
  Mrv1822 09091914012D          

 25 27  0  0  0  0            999 V2000
   -5.0013    3.7125    0.0000 C   0  0  0  0  0  0  0  0  0  0  0  0
   -4.2868    4.1250    0.0000 C   0  0  0  0  0  0  0  0  0  0  0  0
   -3.5724    3.7125    0.0000 C   0  0  0  0  0  0  0  0  0  0  0  0
   -2.8579    4.1250    0.0000 C   0  0  0  0  0  0  0  0  0  0  0  0
   -2.1434    3.7125    0.0000 C   0  0  0  0  0  0  0  0  0  0  0  0
   -1.4289    4.1250    0.0000 C   0  0  0  0  0  0  0  0  0  0  0  0
   -1.4289    4.9500    0.0000 N   0  0  0  0  0  0  0  0  0  0  0  0
   -0.7145    3.7125    0.0000 C   0  0  0  0  0  0  0  0  0  0  0  0
   -0.0000    4.1250    0.0000 C   0  0  0  0  0  0  0  0  0  0  0  0
   -0.0000    4.9500    0.0000 O   0  0  0  0  0  0  0  0  0  0  0  0
    0.7145    3.7125    0.0000 O   0  0  0  0  0  0  0  0  0  0  0  0
    1.4289    4.1250    0.0000 C   0  0  0  0  0  0  0  0  0  0  0  0
    2.1434    3.7125    0.0000 C   0  0  0  0  0  0  0  0  0  0  0  0
    2.1434    2.8875    0.0000 C   0  0  0  0  0  0  0  0  0  0  0  0
    2.8579    2.4750    0.0000 C   0  0  0  0  0  0  0  0  0  0  0  0
    3.5724    2.8875    0.0000 C   0  0  0  0  0  0  0  0  0  0  0  0
    3.5724    3.7125    0.0000 C   0  0  0  0  0  0  0  0  0  0  0  0
    2.8579    4.1250    0.0000 C   0  0  0  0  0  0  0  0  0  0  0  0
    2.8579    4.9500    0.0000 O   0  0  0  0  0  0  0  0  0  0  0  0
    2.1434    5.3625    0.0000 C   0  0  0  0  0  0  0  0  0  0  0  0
    1.4289    4.9500    0.0000 C   0  0  0  0  0  0  0  0  0  0  0  0
    0.7145    5.3625    0.0000 C   0  0  0  0  0  0  0  0  0  0  0  0
    0.7145    6.1875    0.0000 C   0  0  0  0  0  0  0  0  0  0  0  0
    1.4289    6.6000    0.0000 C   0  0  0  0  0  0  0  0  0  0  0  0
    2.1434    6.1875    0.0000 C   0  0  0  0  0  0  0  0  0  0  0  0
  1  2  1  0  0  0  0
  2  3  1  0  0  0  0
  3  4  1  0  0  0  0
  4  5  1  0  0  0  0
  5  6  1  0  0  0  0
  6  7  1  0  0  0  0
  6  8  1  0  0  0  0
  8  9  1  0  0  0  0
  9 10  2  0  0  0  0
  9 11  1  0  0  0  0
 11 12  1  0  0  0  0
 12 13  1  0  0  0  0
 13 14  2  0  0  0  0
 14 15  1  0  0  0  0
 15 16  2  0  0  0  0
 16 17  1  0  0  0  0
 17 18  2  0  0  0  0
 13 18  1  0  0  0  0
 18 19  1  0  0  0  0
 19 20  1  0  0  0  0
 20 21  2  0  0  0  0
 12 21  1  0  0  0  0
 21 22  1  0  0  0  0
 22 23  2  0  0  0  0
 23 24  1  0  0  0  0
 24 25  2  0  0  0  0
 20 25  1  0  0  0  0
M  END
> <ID>
CPD_3737

$$$$
CPD_3742
  Mrv1822 09091914012D          

 26 26  0  0  0  0            999 V2000
    1.4289   -4.9500    0.0000 C   0  0  0  0  0  0  0  0  0  0  0  0
    2.1434   -5.3625    0.0000 C   0  0  0  0  0  0  0  0  0  0  0  0
    2.8579   -4.9500    0.0000 C   0  0  0  0  0  0  0  0  0  0  0  0
    3.5724   -5.3625    0.0000 C   0  0  0  0  0  0  0  0  0  0  0  0
    4.2868   -4.9500    0.0000 C   0  0  0  0  0  0  0  0  0  0  0  0
    5.0013   -5.3625    0.0000 C   0  0  0  0  0  0  0  0  0  0  0  0
    5.0013   -6.1875    0.0000 N   0  0  0  0  0  0  0  0  0  0  0  0
    5.7158   -4.9500    0.0000 C   0  0  0  0  0  0  0  0  0  0  0  0
    6.4302   -5.3625    0.0000 C   0  0  0  0  0  0  0  0  0  0  0  0
    6.4302   -6.1875    0.0000 O   0  0  0  0  0  0  0  0  0  0  0  0
    7.1447   -4.9500    0.0000 O   0  0  0  0  0  0  0  0  0  0  0  0
    7.8592   -5.3625    0.0000 C   0  0  0  0  0  0  0  0  0  0  0  0
    8.5737   -4.9500    0.0000 C   0  0  0  0  0  0  0  0  0  0  0  0
    9.2881   -5.3625    0.0000 C   0  0  0  0  0  0  0  0  0  0  0  0
    9.2881   -6.1875    0.0000 C   0  0  0  0  0  0  0  0  0  0  0  0
    8.5737   -6.6000    0.0000 C   0  0  0  0  0  0  0  0  0  0  0  0
    7.8592   -6.1875    0.0000 C   0  0  0  0  0  0  0  0  0  0  0  0
    7.1447   -6.6000    0.0000 C   0  0  0  0  0  0  0  0  0  0  0  0
    6.3242   -6.6862    0.0000 O   0  0  0  0  0  0  0  0  0  0  0  0
    7.1447   -7.4250    0.0000 O   0  0  0  0  0  0  0  0  0  0  0  0
   10.0026   -6.6000    0.0000 C   0  0  0  0  0  0  0  0  0  0  0  0
   10.7171   -6.1875    0.0000 C   0  0  0  0  0  0  0  0  0  0  0  0
   10.0026   -7.4250    0.0000 C   0  0  0  0  0  0  0  0  0  0  0  0
    8.5737   -4.1250    0.0000 C   0  0  0  0  0  0  0  0  0  0  0  0
    9.2881   -3.7125    0.0000 C   0  0  0  0  0  0  0  0  0  0  0  0
    7.8592   -3.7125    0.0000 C   0  0  0  0  0  0  0  0  0  0  0  0
  1  2  1  0  0  0  0
  2  3  1  0  0  0  0
  3  4  1  0  0  0  0
  4  5  1  0  0  0  0
  5  6  1  0  0  0  0
  6  7  1  0  0  0  0
  6  8  1  0  0  0  0
  8  9  1  0  0  0  0
  9 10  2  0  0  0  0
  9 11  1  0  0  0  0
 11 12  1  0  0  0  0
 12 13  2  0  0  0  0
 13 14  1  0  0  0  0
 14 15  2  0  0  0  0
 15 16  1  0  0  0  0
 16 17  2  0  0  0  0
 12 17  1  0  0  0  0
 17 18  1  0  0  0  0
 18 19  1  0  0  0  0
 18 20  2  0  0  0  0
 15 21  1  0  0  0  0
 21 22  1  0  0  0  0
 21 23  1  0  0  0  0
 13 24  1  0  0  0  0
 24 25  1  0  0  0  0
 24 26  1  0  0  0  0
M  END
> <ID>
CPD_3742

$$$$
CPD_3747
  Mrv1822 09091914012D          

 30 32  0  0  0  0            999 V2000
   -0.0879   -2.1957    0.0000 C   0  0  0  0  0  0  0  0  0  0  0  0
   -0.0879   -3.0207    0.0000 C   0  0  0  0  0  0  0  0  0  0  0  0
    0.6266   -3.4332    0.0000 O   0  0  0  0  0  0  0  0  0  0  0  0
    0.6266   -4.2582    0.0000 C   0  0  0  0  0  0  0  0  0  0  0  0
    1.2099   -4.8415    0.0000 C   0  0  0  0  0  0  0  0  0  0  0  0
    2.0349   -4.8415    0.0000 N   0  0  0  0  0  0  0  0  0  0  0  0
    2.4474   -4.1271    0.0000 C   0  0  0  0  0  0  0  0  0  0  0  0
    3.1149   -4.6120    0.0000 C   0  0  0  0  0  0  0  0  0  0  0  0
    3.8685   -4.2764    0.0000 C   0  0  0  0  0  0  0  0  0  0  0  0
    4.5360   -4.7614    0.0000 O   0  0  0  0  0  0  0  0  0  0  0  0
    3.9548   -3.4560    0.0000 O   0  0  0  0  0  0  0  0  0  0  0  0
    4.7084   -3.1204    0.0000 C   0  0  0  0  0  0  0  0  0  0  0  0
    4.7947   -2.2999    0.0000 C   0  0  0  0  0  0  0  0  0  0  0  0
    5.5484   -1.9644    0.0000 C   0  0  0  0  0  0  0  0  0  0  0  0
    6.2158   -2.4493    0.0000 C   0  0  0  0  0  0  0  0  0  0  0  0
    6.9695   -2.1137    0.0000 Br  0  0  0  0  0  0  0  0  0  0  0  0
    6.1296   -3.2698    0.0000 C   0  0  0  0  0  0  0  0  0  0  0  0
    6.7970   -3.7547    0.0000 O   0  0  0  0  0  0  0  0  0  0  0  0
    5.3759   -3.6053    0.0000 C   0  0  0  0  0  0  0  0  0  0  0  0
    4.1272   -1.8150    0.0000 C   0  0  0  0  0  0  0  0  0  0  0  0
    4.2135   -0.9945    0.0000 O   0  0  0  0  0  0  0  0  0  0  0  0
    3.3736   -2.1506    0.0000 O   0  0  0  0  0  0  0  0  0  0  0  0
    1.6937   -3.7915    0.0000 C   0  0  0  0  0  0  0  0  0  0  0  0
    1.7800   -2.9710    0.0000 C   0  0  0  0  0  0  0  0  0  0  0  0
    2.5870   -2.7995    0.0000 C   0  0  0  0  0  0  0  0  0  0  0  0
    2.9995   -3.5140    0.0000 C   0  0  0  0  0  0  0  0  0  0  0  0
    0.6266   -5.4249    0.0000 C   0  0  0  0  0  0  0  0  0  0  0  0
    0.6266   -6.2499    0.0000 O   0  0  0  0  0  0  0  0  0  0  0  0
    0.0432   -4.8415    0.0000 C   0  0  0  0  0  0  0  0  0  0  0  0
   -0.7818   -4.8415    0.0000 O   0  0  0  0  0  0  0  0  0  0  0  0
  1  2  1  0  0  0  0
  2  3  1  0  0  0  0
  3  4  1  0  0  0  0
  4  5  2  0  0  0  0
  5  6  1  0  0  0  0
  6  7  1  0  0  0  0
  7  8  1  0  0  0  0
  8  9  1  0  0  0  0
  9 10  2  0  0  0  0
  9 11  1  0  0  0  0
 11 12  1  0  0  0  0
 12 13  2  0  0  0  0
 13 14  1  0  0  0  0
 14 15  2  0  0  0  0
 15 16  1  0  0  0  0
 15 17  1  0  0  0  0
 17 18  1  0  0  0  0
 17 19  2  0  0  0  0
 12 19  1  0  0  0  0
 13 20  1  0  0  0  0
 20 21  1  0  0  0  0
 20 22  2  0  0  0  0
  7 23  1  0  0  0  0
 23 24  1  0  0  0  0
 24 25  1  0  0  0  0
 25 26  1  0  0  0  0
  7 26  1  0  0  0  0
  5 27  1  0  0  0  0
 27 28  2  0  0  0  0
 27 29  1  0  0  0  0
  4 29  1  0  0  0  0
 29 30  2  0  0  0  0
M  END
> <ID>
CPD_3747

$$$$
CPD_3752
  Mrv1822 09091914012D          

 28 30  0  0  0  0            999 V2000
    3.1651    0.6593    0.0000 C   0  0  0  0  0  0  0  0  0  0  0  0
    3.1651   -0.1657    0.0000 C   0  0  0  0  0  0  0  0  0  0  0  0
    3.8796   -0.5782    0.0000 O   0  0  0  0  0  0  0  0  0  0  0  0
    3.8796   -1.4032    0.0000 C   0  0  0  0  0  0  0  0  0  0  0  0
    4.4630   -1.9866    0.0000 C   0  0  0  0  0  0  0  0  0  0  0  0
    5.2880   -1.9866    0.0000 N   0  0  0  0  0  0  0  0  0  0  0  0
    5.7005   -1.2721    0.0000 C   0  0  0  0  0  0  0  0  0  0  0  0
    6.3679   -1.7571    0.0000 C   0  0  0  0  0  0  0  0  0  0  0  0
    6.2817   -2.5775    0.0000 C   0  0  0  0  0  0  0  0  0  0  0  0
    5.5280   -2.9131    0.0000 O   0  0  0  0  0  0  0  0  0  0  0  0
    6.9491   -3.0625    0.0000 O   0  0  0  0  0  0  0  0  0  0  0  0
    6.8629   -3.8829    0.0000 C   0  0  0  0  0  0  0  0  0  0  0  0
    7.5303   -4.3679    0.0000 C   0  0  0  0  0  0  0  0  0  0  0  0
    7.4441   -5.1884    0.0000 C   0  0  0  0  0  0  0  0  0  0  0  0
    8.1115   -5.6733    0.0000 C   0  0  0  0  0  0  0  0  0  0  0  0
    8.0253   -6.4938    0.0000 C   0  0  0  0  0  0  0  0  0  0  0  0
    6.6904   -5.5239    0.0000 C   0  0  0  0  0  0  0  0  0  0  0  0
    6.6042   -6.3444    0.0000 Cl  0  0  0  0  0  0  0  0  0  0  0  0
    6.0230   -5.0390    0.0000 C   0  0  0  0  0  0  0  0  0  0  0  0
    6.1092   -4.2185    0.0000 C   0  0  0  0  0  0  0  0  0  0  0  0
    4.9468   -0.9366    0.0000 C   0  0  0  0  0  0  0  0  0  0  0  0
    5.0330   -0.1161    0.0000 C   0  0  0  0  0  0  0  0  0  0  0  0
    5.8400    0.0554    0.0000 C   0  0  0  0  0  0  0  0  0  0  0  0
    6.2525   -0.6590    0.0000 C   0  0  0  0  0  0  0  0  0  0  0  0
    3.8796   -2.5700    0.0000 C   0  0  0  0  0  0  0  0  0  0  0  0
    3.8796   -3.3950    0.0000 O   0  0  0  0  0  0  0  0  0  0  0  0
    3.2963   -1.9866    0.0000 C   0  0  0  0  0  0  0  0  0  0  0  0
    2.4713   -1.9866    0.0000 O   0  0  0  0  0  0  0  0  0  0  0  0
  1  2  1  0  0  0  0
  2  3  1  0  0  0  0
  3  4  1  0  0  0  0
  4  5  2  0  0  0  0
  5  6  1  0  0  0  0
  6  7  1  0  0  0  0
  7  8  1  0  0  0  0
  8  9  1  0  0  0  0
  9 10  2  0  0  0  0
  9 11  1  0  0  0  0
 11 12  1  0  0  0  0
 12 13  2  0  0  0  0
 13 14  1  0  0  0  0
 14 15  1  0  0  0  0
 15 16  1  0  0  0  0
 14 17  2  0  0  0  0
 17 18  1  0  0  0  0
 17 19  1  0  0  0  0
 19 20  2  0  0  0  0
 12 20  1  0  0  0  0
  7 21  1  0  0  0  0
 21 22  1  0  0  0  0
 22 23  1  0  0  0  0
 23 24  1  0  0  0  0
  7 24  1  0  0  0  0
  5 25  1  0  0  0  0
 25 26  2  0  0  0  0
 25 27  1  0  0  0  0
  4 27  1  0  0  0  0
 27 28  2  0  0  0  0
M  END
> <ID>
CPD_3752

$$$$
CPD_3757
  Mrv1822 09091914012D          

 29 31  0  0  0  0            999 V2000
   -1.5169   -2.1957    0.0000 C   0  0  0  0  0  0  0  0  0  0  0  0
   -1.5169   -3.0207    0.0000 C   0  0  0  0  0  0  0  0  0  0  0  0
   -0.8024   -3.4332    0.0000 O   0  0  0  0  0  0  0  0  0  0  0  0
   -0.8024   -4.2582    0.0000 C   0  0  0  0  0  0  0  0  0  0  0  0
   -0.2190   -4.8415    0.0000 C   0  0  0  0  0  0  0  0  0  0  0  0
    0.6060   -4.8415    0.0000 N   0  0  0  0  0  0  0  0  0  0  0  0
    1.0185   -4.1271    0.0000 C   0  0  0  0  0  0  0  0  0  0  0  0
    1.6859   -4.6120    0.0000 C   0  0  0  0  0  0  0  0  0  0  0  0
    2.4396   -4.2764    0.0000 C   0  0  0  0  0  0  0  0  0  0  0  0
    2.5258   -3.4560    0.0000 O   0  0  0  0  0  0  0  0  0  0  0  0
    3.1070   -4.7614    0.0000 O   0  0  0  0  0  0  0  0  0  0  0  0
    3.8607   -4.4258    0.0000 C   0  0  0  0  0  0  0  0  0  0  0  0
    3.9469   -3.6053    0.0000 C   0  0  0  0  0  0  0  0  0  0  0  0
    3.2795   -3.1204    0.0000 O   0  0  0  0  0  0  0  0  0  0  0  0
    4.7006   -3.2698    0.0000 C   0  0  0  0  0  0  0  0  0  0  0  0
    5.3681   -3.7547    0.0000 C   0  0  0  0  0  0  0  0  0  0  0  0
    5.2818   -4.5752    0.0000 C   0  0  0  0  0  0  0  0  0  0  0  0
    4.5281   -4.9107    0.0000 C   0  0  0  0  0  0  0  0  0  0  0  0
    5.9493   -5.0601    0.0000 C   0  0  0  0  0  0  0  0  0  0  0  0
    6.7029   -4.7245    0.0000 O   0  0  0  0  0  0  0  0  0  0  0  0
    5.8630   -5.8806    0.0000 O   0  0  0  0  0  0  0  0  0  0  0  0
    0.2648   -3.7915    0.0000 C   0  0  0  0  0  0  0  0  0  0  0  0
    0.3510   -2.9710    0.0000 C   0  0  0  0  0  0  0  0  0  0  0  0
    1.1580   -2.7995    0.0000 C   0  0  0  0  0  0  0  0  0  0  0  0
    1.5705   -3.5140    0.0000 C   0  0  0  0  0  0  0  0  0  0  0  0
   -0.8024   -5.4249    0.0000 C   0  0  0  0  0  0  0  0  0  0  0  0
   -0.8024   -6.2499    0.0000 O   0  0  0  0  0  0  0  0  0  0  0  0
   -1.3857   -4.8415    0.0000 C   0  0  0  0  0  0  0  0  0  0  0  0
   -2.2107   -4.8415    0.0000 O   0  0  0  0  0  0  0  0  0  0  0  0
  1  2  1  0  0  0  0
  2  3  1  0  0  0  0
  3  4  1  0  0  0  0
  4  5  2  0  0  0  0
  5  6  1  0  0  0  0
  6  7  1  0  0  0  0
  7  8  1  0  0  0  0
  8  9  1  0  0  0  0
  9 10  2  0  0  0  0
  9 11  1  0  0  0  0
 11 12  1  0  0  0  0
 12 13  2  0  0  0  0
 13 14  1  0  0  0  0
 13 15  1  0  0  0  0
 15 16  2  0  0  0  0
 16 17  1  0  0  0  0
 17 18  2  0  0  0  0
 12 18  1  0  0  0  0
 17 19  1  0  0  0  0
 19 20  1  0  0  0  0
 19 21  2  0  0  0  0
  7 22  1  0  0  0  0
 22 23  1  0  0  0  0
 23 24  1  0  0  0  0
 24 25  1  0  0  0  0
  7 25  1  0  0  0  0
  5 26  1  0  0  0  0
 26 27  2  0  0  0  0
 26 28  1  0  0  0  0
  4 28  1  0  0  0  0
 28 29  2  0  0  0  0
M  END
> <ID>
CPD_3757

$$$$
CPD_3762
  Mrv1822 09091914012D          

 27 28  0  0  0  0            999 V2000
    4.2868    1.6500    0.0000 C   0  0  0  0  0  0  0  0  0  0  0  0
    3.5724    1.2375    0.0000 C   0  0  0  0  0  0  0  0  0  0  0  0
    3.5724    0.4125    0.0000 C   0  0  0  0  0  0  0  0  0  0  0  0
    2.8579    0.0000    0.0000 C   0  0  0  0  0  0  0  0  0  0  0  0
    2.8579   -0.8250    0.0000 C   0  0  0  0  0  0  0  0  0  0  0  0
    2.0329   -0.8250    0.0000 C   0  0  0  0  0  0  0  0  0  0  0  0
    3.6829   -0.8250    0.0000 C   0  0  0  0  0  0  0  0  0  0  0  0
    2.8579   -1.6500    0.0000 O   0  0  0  0  0  0  0  0  0  0  0  0
    2.1434   -2.0625    0.0000 C   0  0  0  0  0  0  0  0  0  0  0  0
    1.4289   -1.6500    0.0000 O   0  0  0  0  0  0  0  0  0  0  0  0
    2.1434   -2.8875    0.0000 C   0  0  0  0  0  0  0  0  0  0  0  0
    2.8109   -3.3724    0.0000 C   0  0  0  0  0  0  0  0  0  0  0  0
    2.5559   -4.1570    0.0000 C   0  0  0  0  0  0  0  0  0  0  0  0
    1.7309   -4.1570    0.0000 C   0  0  0  0  0  0  0  0  0  0  0  0
    1.2460   -4.8245    0.0000 C   0  0  0  0  0  0  0  0  0  0  0  0
    1.5815   -5.5782    0.0000 S   0  0  0  0  0  0  0  0  0  0  0  0
    0.8279   -5.9137    0.0000 O   0  0  0  0  0  0  0  0  0  0  0  0
    2.3352   -5.2426    0.0000 O   0  0  0  0  0  0  0  0  0  0  0  0
    1.9171   -6.3318    0.0000 C   0  0  0  0  0  0  0  0  0  0  0  0
    1.4322   -6.9993    0.0000 C   0  0  0  0  0  0  0  0  0  0  0  0
    1.7677   -7.7529    0.0000 C   0  0  0  0  0  0  0  0  0  0  0  0
    2.5882   -7.8392    0.0000 F   0  0  0  0  0  0  0  0  0  0  0  0
    1.2828   -8.4204    0.0000 C   0  0  0  0  0  0  0  0  0  0  0  0
    0.4623   -8.3342    0.0000 C   0  0  0  0  0  0  0  0  0  0  0  0
    0.1268   -7.5805    0.0000 C   0  0  0  0  0  0  0  0  0  0  0  0
    0.6117   -6.9130    0.0000 C   0  0  0  0  0  0  0  0  0  0  0  0
    1.4760   -3.3724    0.0000 O   0  0  0  0  0  0  0  0  0  0  0  0
  1  2  1  0  0  0  0
  2  3  1  0  0  0  0
  3  4  1  0  0  0  0
  4  5  1  0  0  0  0
  5  6  1  0  0  0  0
  5  7  1  0  0  0  0
  5  8  1  0  0  0  0
  8  9  1  0  0  0  0
  9 10  2  0  0  0  0
  9 11  1  0  0  0  0
 11 12  2  0  0  0  0
 12 13  1  0  0  0  0
 13 14  2  0  0  0  0
 14 15  1  0  0  0  0
 15 16  1  0  0  0  0
 16 17  2  0  0  0  0
 16 18  2  0  0  0  0
 16 19  1  0  0  0  0
 19 20  1  0  0  0  0
 20 21  2  0  0  0  0
 21 22  1  0  0  0  0
 21 23  1  0  0  0  0
 23 24  2  0  0  0  0
 24 25  1  0  0  0  0
 25 26  2  0  0  0  0
 20 26  1  0  0  0  0
 14 27  1  0  0  0  0
 11 27  1  0  0  0  0
M  END
> <ID>
CPD_3762

$$$$
CPD_3767
  Mrv1822 09091914012D          

 30 32  0  0  0  0            999 V2000
    5.7158   -0.8250    0.0000 C   0  0  0  0  0  0  0  0  0  0  0  0
    5.0013   -0.4125    0.0000 C   0  0  0  0  0  0  0  0  0  0  0  0
    5.0013    0.4125    0.0000 O   0  0  0  0  0  0  0  0  0  0  0  0
    4.2868   -0.8250    0.0000 N   0  0  0  0  0  0  0  0  0  0  0  0
    3.5724   -0.4125    0.0000 C   0  0  0  0  0  0  0  0  0  0  0  0
    2.8579   -0.8250    0.0000 C   0  0  0  0  0  0  0  0  0  0  0  0
    2.8579   -1.6500    0.0000 O   0  0  0  0  0  0  0  0  0  0  0  0
    2.1434   -2.0625    0.0000 C   0  0  0  0  0  0  0  0  0  0  0  0
    1.4289   -1.6500    0.0000 O   0  0  0  0  0  0  0  0  0  0  0  0
    2.1434   -2.8875    0.0000 C   0  0  0  0  0  0  0  0  0  0  0  0
    2.8109   -3.3724    0.0000 C   0  0  0  0  0  0  0  0  0  0  0  0
    2.5559   -4.1570    0.0000 C   0  0  0  0  0  0  0  0  0  0  0  0
    1.7309   -4.1570    0.0000 C   0  0  0  0  0  0  0  0  0  0  0  0
    1.2460   -4.8245    0.0000 C   0  0  0  0  0  0  0  0  0  0  0  0
    1.5815   -5.5782    0.0000 S   0  0  0  0  0  0  0  0  0  0  0  0
    0.8279   -5.9137    0.0000 O   0  0  0  0  0  0  0  0  0  0  0  0
    2.3352   -5.2426    0.0000 O   0  0  0  0  0  0  0  0  0  0  0  0
    1.9171   -6.3318    0.0000 C   0  0  0  0  0  0  0  0  0  0  0  0
    1.4322   -6.9993    0.0000 C   0  0  0  0  0  0  0  0  0  0  0  0
    1.7677   -7.7529    0.0000 C   0  0  0  0  0  0  0  0  0  0  0  0
    2.5882   -7.8392    0.0000 F   0  0  0  0  0  0  0  0  0  0  0  0
    1.2828   -8.4204    0.0000 C   0  0  0  0  0  0  0  0  0  0  0  0
    0.4623   -8.3342    0.0000 C   0  0  0  0  0  0  0  0  0  0  0  0
    0.1268   -7.5805    0.0000 C   0  0  0  0  0  0  0  0  0  0  0  0
    0.6117   -6.9130    0.0000 C   0  0  0  0  0  0  0  0  0  0  0  0
    1.4760   -3.3724    0.0000 O   0  0  0  0  0  0  0  0  0  0  0  0
    2.1434   -0.4125    0.0000 C   0  0  0  0  0  0  0  0  0  0  0  0
    2.1434    0.4125    0.0000 C   0  0  0  0  0  0  0  0  0  0  0  0
    2.8579    0.8250    0.0000 C   0  0  0  0  0  0  0  0  0  0  0  0
    3.5724    0.4125    0.0000 C   0  0  0  0  0  0  0  0  0  0  0  0
  1  2  1  0  0  0  0
  2  3  2  0  0  0  0
  2  4  1  0  0  0  0
  4  5  1  0  0  0  0
  5  6  2  0  0  0  0
  6  7  1  0  0  0  0
  7  8  1  0  0  0  0
  8  9  2  0  0  0  0
  8 10  1  0  0  0  0
 10 11  2  0  0  0  0
 11 12  1  0  0  0  0
 12 13  2  0  0  0  0
 13 14  1  0  0  0  0
 14 15  1  0  0  0  0
 15 16  2  0  0  0  0
 15 17  2  0  0  0  0
 15 18  1  0  0  0  0
 18 19  1  0  0  0  0
 19 20  2  0  0  0  0
 20 21  1  0  0  0  0
 20 22  1  0  0  0  0
 22 23  2  0  0  0  0
 23 24  1  0  0  0  0
 24 25  2  0  0  0  0
 19 25  1  0  0  0  0
 13 26  1  0  0  0  0
 10 26  1  0  0  0  0
  6 27  1  0  0  0  0
 27 28  2  0  0  0  0
 28 29  1  0  0  0  0
 29 30  2  0  0  0  0
  5 30  1  0  0  0  0
M  END
> <ID>
CPD_3767

$$$$
CPD_3772
  Mrv1822 09091914012D          

 27 29  0  0  0  0            999 V2000
   -2.6334   -3.4087    0.0000 C   0  0  0  0  0  0  0  0  0  0  0  0
   -2.1031   -2.7767    0.0000 O   0  0  0  0  0  0  0  0  0  0  0  0
   -1.2906   -2.9200    0.0000 C   0  0  0  0  0  0  0  0  0  0  0  0
   -0.7603   -2.2880    0.0000 C   0  0  0  0  0  0  0  0  0  0  0  0
    0.0521   -2.4312    0.0000 C   0  0  0  0  0  0  0  0  0  0  0  0
    0.3343   -3.2065    0.0000 C   0  0  0  0  0  0  0  0  0  0  0  0
    1.1468   -3.3498    0.0000 O   0  0  0  0  0  0  0  0  0  0  0  0
    1.4289   -4.1250    0.0000 C   0  0  0  0  0  0  0  0  0  0  0  0
    1.9592   -4.7570    0.0000 C   0  0  0  0  0  0  0  0  0  0  0  0
    1.6771   -5.5322    0.0000 C   0  0  0  0  0  0  0  0  0  0  0  0
    0.8646   -5.6755    0.0000 C   0  0  0  0  0  0  0  0  0  0  0  0
    0.3343   -5.0435    0.0000 C   0  0  0  0  0  0  0  0  0  0  0  0
    0.6165   -4.2683    0.0000 C   0  0  0  0  0  0  0  0  0  0  0  0
    2.1434   -3.7125    0.0000 C   0  0  0  0  0  0  0  0  0  0  0  0
    2.1434   -2.8875    0.0000 O   0  0  0  0  0  0  0  0  0  0  0  0
    2.8579   -4.1250    0.0000 O   0  0  0  0  0  0  0  0  0  0  0  0
    3.5724   -3.7125    0.0000 C   0  0  0  0  0  0  0  0  0  0  0  0
    4.2868   -4.1250    0.0000 C   0  0  0  0  0  0  0  0  0  0  0  0
    5.0013   -3.7125    0.0000 C   0  0  0  0  0  0  0  0  0  0  0  0
    5.7158   -4.1250    0.0000 C   0  0  0  0  0  0  0  0  0  0  0  0
    6.4302   -3.7125    0.0000 C   0  0  0  0  0  0  0  0  0  0  0  0
    7.1447   -4.1250    0.0000 C   0  0  0  0  0  0  0  0  0  0  0  0
    7.1447   -4.9500    0.0000 C   0  0  0  0  0  0  0  0  0  0  0  0
    6.4302   -5.3625    0.0000 N   0  0  0  0  0  0  0  0  0  0  0  0
    5.7158   -4.9500    0.0000 C   0  0  0  0  0  0  0  0  0  0  0  0
   -0.1960   -3.8385    0.0000 C   0  0  0  0  0  0  0  0  0  0  0  0
   -1.0085   -3.6952    0.0000 C   0  0  0  0  0  0  0  0  0  0  0  0
  1  2  1  0  0  0  0
  2  3  1  0  0  0  0
  3  4  2  0  0  0  0
  4  5  1  0  0  0  0
  5  6  2  0  0  0  0
  6  7  1  0  0  0  0
  7  8  1  0  0  0  0
  8  9  1  0  0  0  0
  9 10  1  0  0  0  0
 10 11  1  0  0  0  0
 11 12  1  0  0  0  0
 12 13  1  0  0  0  0
  8 13  1  0  0  0  0
  8 14  1  0  0  0  0
 14 15  2  0  0  0  0
 14 16  1  0  0  0  0
 16 17  1  0  0  0  0
 17 18  1  0  0  0  0
 18 19  1  0  0  0  0
 19 20  1  0  0  0  0
 20 21  2  0  0  0  0
 21 22  1  0  0  0  0
 22 23  2  0  0  0  0
 23 24  1  0  0  0  0
 24 25  2  0  0  0  0
 20 25  1  0  0  0  0
  6 26  1  0  0  0  0
 26 27  2  0  0  0  0
  3 27  1  0  0  0  0
M  END
> <ID>
CPD_3772

$$$$
CPD_3777
  Mrv1822 09091914012D          

 37 40  0  0  0  0            999 V2000
    0.7145   -3.7125    0.0000 C   0  0  0  0  0  0  0  0  0  0  0  0
    1.4289   -3.3000    0.0000 N   0  0  0  0  0  0  0  0  0  0  0  0
    2.1434   -3.7125    0.0000 C   0  0  0  0  0  0  0  0  0  0  0  0
    2.1434   -4.5375    0.0000 C   0  0  0  0  0  0  0  0  0  0  0  0
    1.4289   -4.9500    0.0000 O   0  0  0  0  0  0  0  0  0  0  0  0
    2.8579   -4.9500    0.0000 O   0  0  0  0  0  0  0  0  0  0  0  0
    2.8579   -5.7750    0.0000 C   0  0  0  0  0  0  0  0  0  0  0  0
    3.6784   -5.6888    0.0000 C   0  0  0  0  0  0  0  0  0  0  0  0
    4.0139   -4.9351    0.0000 C   0  0  0  0  0  0  0  0  0  0  0  0
    3.5290   -4.2676    0.0000 O   0  0  0  0  0  0  0  0  0  0  0  0
    4.8344   -4.8489    0.0000 O   0  0  0  0  0  0  0  0  0  0  0  0
    2.0374   -5.6888    0.0000 C   0  0  0  0  0  0  0  0  0  0  0  0
    1.7018   -6.4424    0.0000 C   0  0  0  0  0  0  0  0  0  0  0  0
    0.8949   -6.6140    0.0000 O   0  0  0  0  0  0  0  0  0  0  0  0
    2.3149   -6.9945    0.0000 N   0  0  0  0  0  0  0  0  0  0  0  0
    3.0294   -6.5820    0.0000 C   0  0  0  0  0  0  0  0  0  0  0  0
    3.7831   -6.9175    0.0000 O   0  0  0  0  0  0  0  0  0  0  0  0
    2.2287   -7.8150    0.0000 C   0  0  0  0  0  0  0  0  0  0  0  0
    2.8961   -8.2999    0.0000 C   0  0  0  0  0  0  0  0  0  0  0  0
    2.8099   -9.1204    0.0000 C   0  0  0  0  0  0  0  0  0  0  0  0
    2.0562   -9.4559    0.0000 C   0  0  0  0  0  0  0  0  0  0  0  0
    1.3888   -8.9710    0.0000 C   0  0  0  0  0  0  0  0  0  0  0  0
    1.4750   -8.1505    0.0000 C   0  0  0  0  0  0  0  0  0  0  0  0
    1.4289   -2.4750    0.0000 S   0  0  0  0  0  0  0  0  0  0  0  0
    2.2539   -2.4750    0.0000 O   0  0  0  0  0  0  0  0  0  0  0  0
    0.6039   -2.4750    0.0000 O   0  0  0  0  0  0  0  0  0  0  0  0
    1.4289   -1.6500    0.0000 C   0  0  0  0  0  0  0  0  0  0  0  0
    0.7145   -1.2375    0.0000 C   0  0  0  0  0  0  0  0  0  0  0  0
    0.7145   -0.4125    0.0000 C   0  0  0  0  0  0  0  0  0  0  0  0
    1.4289    0.0000    0.0000 C   0  0  0  0  0  0  0  0  0  0  0  0
    1.4289    0.8250    0.0000 F   0  0  0  0  0  0  0  0  0  0  0  0
    2.1434   -0.4125    0.0000 C   0  0  0  0  0  0  0  0  0  0  0  0
    2.8579    0.0000    0.0000 C   0  0  0  0  0  0  0  0  0  0  0  0
    3.5724   -0.4125    0.0000 C   0  0  0  0  0  0  0  0  0  0  0  0
    3.5724   -1.2375    0.0000 C   0  0  0  0  0  0  0  0  0  0  0  0
    2.8579   -1.6500    0.0000 C   0  0  0  0  0  0  0  0  0  0  0  0
    2.1434   -1.2375    0.0000 C   0  0  0  0  0  0  0  0  0  0  0  0
  1  2  1  0  0  0  0
  2  3  1  0  0  0  0
  3  4  1  0  0  0  0
  4  5  2  0  0  0  0
  4  6  1  0  0  0  0
  6  7  1  0  0  0  0
  7  8  1  0  0  0  0
  8  9  1  0  0  0  0
  9 10  1  0  0  0  0
  9 11  2  0  0  0  0
  7 12  1  0  0  0  0
 12 13  1  0  0  0  0
 13 14  2  0  0  0  0
 13 15  1  0  0  0  0
 15 16  1  0  0  0  0
  7 16  1  0  0  0  0
 16 17  2  0  0  0  0
 15 18  1  0  0  0  0
 18 19  2  0  0  0  0
 19 20  1  0  0  0  0
 20 21  2  0  0  0  0
 21 22  1  0  0  0  0
 22 23  2  0  0  0  0
 18 23  1  0  0  0  0
  2 24  1  0  0  0  0
 24 25  2  0  0  0  0
 24 26  2  0  0  0  0
 24 27  1  0  0  0  0
 27 28  2  0  0  0  0
 28 29  1  0  0  0  0
 29 30  2  0  0  0  0
 30 31  1  0  0  0  0
 30 32  1  0  0  0  0
 32 33  2  0  0  0  0
 33 34  1  0  0  0  0
 34 35  2  0  0  0  0
 35 36  1  0  0  0  0
 36 37  2  0  0  0  0
 27 37  1  0  0  0  0
 32 37  1  0  0  0  0
M  END
> <ID>
CPD_3777

$$$$
CPD_3782
  Mrv1822 09091914012D          

 28 30  0  0  0  0            999 V2000
    1.0164    6.0132    0.0000 C   0  0  0  0  0  0  0  0  0  0  0  0
    1.7309    5.6007    0.0000 C   0  0  0  0  0  0  0  0  0  0  0  0
    2.4454    6.0132    0.0000 C   0  0  0  0  0  0  0  0  0  0  0  0
    1.7309    4.7757    0.0000 C   0  0  0  0  0  0  0  0  0  0  0  0
    2.4454    4.3632    0.0000 C   0  0  0  0  0  0  0  0  0  0  0  0
    2.4454    3.5382    0.0000 C   0  0  0  0  0  0  0  0  0  0  0  0
    1.7309    3.1257    0.0000 C   0  0  0  0  0  0  0  0  0  0  0  0
    1.0164    3.5382    0.0000 C   0  0  0  0  0  0  0  0  0  0  0  0
    1.0164    4.3632    0.0000 C   0  0  0  0  0  0  0  0  0  0  0  0
    1.7309    2.3007    0.0000 N   0  0  0  0  0  0  0  0  0  0  0  0
    1.0164    1.8882    0.0000 C   0  0  0  0  0  0  0  0  0  0  0  0
    1.0164    1.0632    0.0000 C   0  0  0  0  0  0  0  0  0  0  0  0
    1.7309    0.6507    0.0000 O   0  0  0  0  0  0  0  0  0  0  0  0
    0.3020    0.6507    0.0000 O   0  0  0  0  0  0  0  0  0  0  0  0
   -0.4125    1.0632    0.0000 C   0  0  0  0  0  0  0  0  0  0  0  0
   -1.1270    0.6507    0.0000 C   0  0  0  0  0  0  0  0  0  0  0  0
   -1.1270   -0.1743    0.0000 C   0  0  0  0  0  0  0  0  0  0  0  0
   -0.7145   -0.8888    0.0000 C   0  0  0  0  0  0  0  0  0  0  0  0
   -1.5395   -0.8888    0.0000 C   0  0  0  0  0  0  0  0  0  0  0  0
   -1.8414    1.0632    0.0000 C   0  0  0  0  0  0  0  0  0  0  0  0
   -2.5559    0.6507    0.0000 Cl  0  0  0  0  0  0  0  0  0  0  0  0
   -1.8414    1.8882    0.0000 C   0  0  0  0  0  0  0  0  0  0  0  0
   -1.1270    2.3007    0.0000 C   0  0  0  0  0  0  0  0  0  0  0  0
   -0.4125    1.8882    0.0000 C   0  0  0  0  0  0  0  0  0  0  0  0
    2.4454    1.8882    0.0000 S   0  0  0  0  0  0  0  0  0  0  0  0
    3.1599    1.4757    0.0000 C   0  0  0  0  0  0  0  0  0  0  0  0
    2.8579    2.6026    0.0000 O   0  0  0  0  0  0  0  0  0  0  0  0
    2.0329    1.1737    0.0000 O   0  0  0  0  0  0  0  0  0  0  0  0
  1  2  1  0  0  0  0
  2  3  1  0  0  0  0
  2  4  1  0  0  0  0
  4  5  2  0  0  0  0
  5  6  1  0  0  0  0
  6  7  2  0  0  0  0
  7  8  1  0  0  0  0
  8  9  2  0  0  0  0
  4  9  1  0  0  0  0
  7 10  1  0  0  0  0
 10 11  1  0  0  0  0
 11 12  1  0  0  0  0
 12 13  2  0  0  0  0
 12 14  1  0  0  0  0
 14 15  1  0  0  0  0
 15 16  2  0  0  0  0
 16 17  1  0  0  0  0
 17 18  1  0  0  0  0
 18 19  1  0  0  0  0
 17 19  1  0  0  0  0
 16 20  1  0  0  0  0
 20 21  1  0  0  0  0
 20 22  2  0  0  0  0
 22 23  1  0  0  0  0
 23 24  2  0  0  0  0
 15 24  1  0  0  0  0
 10 25  1  0  0  0  0
 25 26  1  0  0  0  0
 25 27  2  0  0  0  0
 25 28  2  0  0  0  0
M  END
> <ID>
CPD_3782

$$$$
CPD_3787
  Mrv1822 09091914012D          

 24 26  0  0  0  0            999 V2000
   -3.8532   -4.2850    0.0000 C   0  0  0  0  0  0  0  0  0  0  0  0
   -3.0686   -4.0300    0.0000 C   0  0  0  0  0  0  0  0  0  0  0  0
   -2.4555   -4.5821    0.0000 C   0  0  0  0  0  0  0  0  0  0  0  0
   -2.8971   -3.2231    0.0000 N   0  0  0  0  0  0  0  0  0  0  0  0
   -3.4491   -2.6100    0.0000 N   0  0  0  0  0  0  0  0  0  0  0  0
   -3.0366   -1.8955    0.0000 C   0  0  0  0  0  0  0  0  0  0  0  0
   -2.2296   -2.0670    0.0000 C   0  0  0  0  0  0  0  0  0  0  0  0
   -1.6166   -1.5150    0.0000 Cl  0  0  0  0  0  0  0  0  0  0  0  0
   -2.1434   -2.8875    0.0000 C   0  0  0  0  0  0  0  0  0  0  0  0
   -1.4289   -3.3000    0.0000 C   0  0  0  0  0  0  0  0  0  0  0  0
   -0.7145   -2.8875    0.0000 C   0  0  0  0  0  0  0  0  0  0  0  0
   -0.7145   -2.0625    0.0000 O   0  0  0  0  0  0  0  0  0  0  0  0
    0.0000   -3.3000    0.0000 O   0  0  0  0  0  0  0  0  0  0  0  0
    0.7145   -2.8875    0.0000 C   0  0  0  0  0  0  0  0  0  0  0  0
    1.4289   -3.3000    0.0000 C   0  0  0  0  0  0  0  0  0  0  0  0
    2.1434   -2.8875    0.0000 C   0  0  0  0  0  0  0  0  0  0  0  0
    2.1434   -2.0625    0.0000 O   0  0  0  0  0  0  0  0  0  0  0  0
    2.8579   -1.6500    0.0000 C   0  0  0  0  0  0  0  0  0  0  0  0
    3.5724   -2.0625    0.0000 C   0  0  0  0  0  0  0  0  0  0  0  0
    3.5724   -2.8875    0.0000 O   0  0  0  0  0  0  0  0  0  0  0  0
    2.8579   -3.3000    0.0000 C   0  0  0  0  0  0  0  0  0  0  0  0
    2.8579   -4.1250    0.0000 N   0  0  0  0  0  0  0  0  0  0  0  0
    2.1434   -4.5375    0.0000 C   0  0  0  0  0  0  0  0  0  0  0  0
    1.4289   -4.1250    0.0000 C   0  0  0  0  0  0  0  0  0  0  0  0
  1  2  1  0  0  0  0
  2  3  1  0  0  0  0
  2  4  1  0  0  0  0
  4  5  1  0  0  0  0
  5  6  2  0  0  0  0
  6  7  1  0  0  0  0
  7  8  1  0  0  0  0
  7  9  2  0  0  0  0
  4  9  1  0  0  0  0
  9 10  1  0  0  0  0
 10 11  1  0  0  0  0
 11 12  2  0  0  0  0
 11 13  1  0  0  0  0
 13 14  1  0  0  0  0
 14 15  1  0  0  0  0
 15 16  2  0  0  0  0
 16 17  1  0  0  0  0
 17 18  1  0  0  0  0
 18 19  1  0  0  0  0
 19 20  1  0  0  0  0
 20 21  1  0  0  0  0
 16 21  1  0  0  0  0
 21 22  2  0  0  0  0
 22 23  1  0  0  0  0
 23 24  2  0  0  0  0
 15 24  1  0  0  0  0
M  END
> <ID>
CPD_3787

$$$$
CPD_3792
  Mrv1822 09091914012D          

 26 27  0  0  0  0            999 V2000
   -0.2726    3.1465    0.0000 C   0  0  0  0  0  0  0  0  0  0  0  0
    0.3405    2.5945    0.0000 C   0  0  0  0  0  0  0  0  0  0  0  0
    0.1690    1.7875    0.0000 C   0  0  0  0  0  0  0  0  0  0  0  0
    1.1251    2.8494    0.0000 N   0  0  0  0  0  0  0  0  0  0  0  0
    1.3801    3.6340    0.0000 N   0  0  0  0  0  0  0  0  0  0  0  0
    2.2051    3.6340    0.0000 C   0  0  0  0  0  0  0  0  0  0  0  0
    2.4600    2.8494    0.0000 C   0  0  0  0  0  0  0  0  0  0  0  0
    3.2446    2.5945    0.0000 Cl  0  0  0  0  0  0  0  0  0  0  0  0
    1.7926    2.3645    0.0000 C   0  0  0  0  0  0  0  0  0  0  0  0
    1.7926    1.5395    0.0000 C   0  0  0  0  0  0  0  0  0  0  0  0
    2.5070    1.1270    0.0000 C   0  0  0  0  0  0  0  0  0  0  0  0
    2.5070    0.3020    0.0000 O   0  0  0  0  0  0  0  0  0  0  0  0
    3.2215    1.5395    0.0000 O   0  0  0  0  0  0  0  0  0  0  0  0
    3.9360    1.1270    0.0000 C   0  0  0  0  0  0  0  0  0  0  0  0
    3.9360    0.3020    0.0000 C   0  0  0  0  0  0  0  0  0  0  0  0
    3.1110    0.3020    0.0000 C   0  0  0  0  0  0  0  0  0  0  0  0
    4.7610    0.3020    0.0000 C   0  0  0  0  0  0  0  0  0  0  0  0
    4.7610   -0.5230    0.0000 N   0  0  0  0  0  0  0  0  0  0  0  0
    3.9360   -0.5230    0.0000 C   0  0  0  0  0  0  0  0  0  0  0  0
    5.3443   -1.1064    0.0000 C   0  0  0  0  0  0  0  0  0  0  0  0
    6.1412   -0.8929    0.0000 O   0  0  0  0  0  0  0  0  0  0  0  0
    5.1308   -1.9033    0.0000 O   0  0  0  0  0  0  0  0  0  0  0  0
    5.7142   -2.4866    0.0000 C   0  0  0  0  0  0  0  0  0  0  0  0
    6.2975   -3.0700    0.0000 C   0  0  0  0  0  0  0  0  0  0  0  0
    5.1308   -3.0700    0.0000 C   0  0  0  0  0  0  0  0  0  0  0  0
    6.2975   -1.9033    0.0000 C   0  0  0  0  0  0  0  0  0  0  0  0
  1  2  1  0  0  0  0
  2  3  1  0  0  0  0
  2  4  1  0  0  0  0
  4  5  1  0  0  0  0
  5  6  2  0  0  0  0
  6  7  1  0  0  0  0
  7  8  1  0  0  0  0
  7  9  2  0  0  0  0
  4  9  1  0  0  0  0
  9 10  1  0  0  0  0
 10 11  1  0  0  0  0
 11 12  2  0  0  0  0
 11 13  1  0  0  0  0
 13 14  1  0  0  0  0
 14 15  1  0  0  0  0
 15 16  1  0  0  0  0
 15 17  1  0  0  0  0
 17 18  1  0  0  0  0
 18 19  1  0  0  0  0
 15 19  1  0  0  0  0
 18 20  1  0  0  0  0
 20 21  2  0  0  0  0
 20 22  1  0  0  0  0
 22 23  1  0  0  0  0
 23 24  1  0  0  0  0
 23 25  1  0  0  0  0
 23 26  1  0  0  0  0
M  END
> <ID>
CPD_3792

$$$$
CPD_3797
  Mrv1822 09091914012D          

 20 21  0  0  0  0            999 V2000
   -1.0373   -3.3932    0.0000 C   0  0  0  0  0  0  0  0  0  0  0  0
   -0.2527   -3.1382    0.0000 C   0  0  0  0  0  0  0  0  0  0  0  0
    0.3604   -3.6903    0.0000 C   0  0  0  0  0  0  0  0  0  0  0  0
   -0.0811   -2.3313    0.0000 N   0  0  0  0  0  0  0  0  0  0  0  0
   -0.6332   -1.7182    0.0000 N   0  0  0  0  0  0  0  0  0  0  0  0
   -0.2207   -1.0037    0.0000 C   0  0  0  0  0  0  0  0  0  0  0  0
    0.5863   -1.1752    0.0000 C   0  0  0  0  0  0  0  0  0  0  0  0
    1.1994   -0.6232    0.0000 Cl  0  0  0  0  0  0  0  0  0  0  0  0
    0.6725   -1.9957    0.0000 C   0  0  0  0  0  0  0  0  0  0  0  0
    1.3870   -2.4082    0.0000 C   0  0  0  0  0  0  0  0  0  0  0  0
    2.1015   -1.9957    0.0000 C   0  0  0  0  0  0  0  0  0  0  0  0
    2.1015   -1.1707    0.0000 O   0  0  0  0  0  0  0  0  0  0  0  0
    2.8159   -2.4082    0.0000 O   0  0  0  0  0  0  0  0  0  0  0  0
    3.5304   -1.9957    0.0000 C   0  0  0  0  0  0  0  0  0  0  0  0
    4.2449   -2.4082    0.0000 C   0  0  0  0  0  0  0  0  0  0  0  0
    4.9986   -2.0727    0.0000 C   0  0  0  0  0  0  0  0  0  0  0  0
    5.5506   -2.6857    0.0000 N   0  0  0  0  0  0  0  0  0  0  0  0
    6.3711   -2.5995    0.0000 C   0  0  0  0  0  0  0  0  0  0  0  0
    5.1381   -3.4002    0.0000 C   0  0  0  0  0  0  0  0  0  0  0  0
    4.3311   -3.2287    0.0000 N   0  0  0  0  0  0  0  0  0  0  0  0
  1  2  1  0  0  0  0
  2  3  1  0  0  0  0
  2  4  1  0  0  0  0
  4  5  1  0  0  0  0
  5  6  2  0  0  0  0
  6  7  1  0  0  0  0
  7  8  1  0  0  0  0
  7  9  2  0  0  0  0
  4  9  1  0  0  0  0
  9 10  1  0  0  0  0
 10 11  1  0  0  0  0
 11 12  2  0  0  0  0
 11 13  1  0  0  0  0
 13 14  1  0  0  0  0
 14 15  1  0  0  0  0
 15 16  2  0  0  0  0
 16 17  1  0  0  0  0
 17 18  1  0  0  0  0
 17 19  1  0  0  0  0
 19 20  2  0  0  0  0
 15 20  1  0  0  0  0
M  END
> <ID>
CPD_3797

$$$$
CPD_3802
  Mrv1822 09091914012D          

 35 38  0  0  0  0            999 V2000
   -4.5978    1.5847    0.0000 C   0  0  0  0  0  0  0  0  0  0  0  0
   -4.1853    0.8703    0.0000 C   0  0  0  0  0  0  0  0  0  0  0  0
   -4.8998    0.4578    0.0000 C   0  0  0  0  0  0  0  0  0  0  0  0
   -3.4709    1.2828    0.0000 C   0  0  0  0  0  0  0  0  0  0  0  0
   -3.7728    0.1558    0.0000 O   0  0  0  0  0  0  0  0  0  0  0  0
   -2.9478    0.1558    0.0000 C   0  0  0  0  0  0  0  0  0  0  0  0
   -2.5353    0.8703    0.0000 O   0  0  0  0  0  0  0  0  0  0  0  0
   -2.5353   -0.5587    0.0000 N   0  0  0  0  0  0  0  0  0  0  0  0
   -1.7103   -0.5587    0.0000 C   0  0  0  0  0  0  0  0  0  0  0  0
   -1.2978   -1.2731    0.0000 C   0  0  0  0  0  0  0  0  0  0  0  0
   -1.7103   -1.9876    0.0000 C   0  0  0  0  0  0  0  0  0  0  0  0
   -0.9134   -2.2011    0.0000 C   0  0  0  0  0  0  0  0  0  0  0  0
   -1.1270   -2.9980    0.0000 C   0  0  0  0  0  0  0  0  0  0  0  0
   -1.9239   -2.7845    0.0000 C   0  0  0  0  0  0  0  0  0  0  0  0
   -0.7145   -3.7125    0.0000 O   0  0  0  0  0  0  0  0  0  0  0  0
    0.1105   -3.7125    0.0000 C   0  0  0  0  0  0  0  0  0  0  0  0
    0.5230   -2.9980    0.0000 O   0  0  0  0  0  0  0  0  0  0  0  0
    0.5230   -4.4270    0.0000 C   0  0  0  0  0  0  0  0  0  0  0  0
    1.3480   -4.4270    0.0000 N   0  0  0  0  0  0  0  0  0  0  0  0
    1.7605   -5.1414    0.0000 C   0  0  0  0  0  0  0  0  0  0  0  0
    2.5855   -5.1414    0.0000 C   0  0  0  0  0  0  0  0  0  0  0  0
    2.9980   -4.4270    0.0000 C   0  0  0  0  0  0  0  0  0  0  0  0
    3.8230   -4.4270    0.0000 C   0  0  0  0  0  0  0  0  0  0  0  0
    4.2355   -5.1414    0.0000 C   0  0  0  0  0  0  0  0  0  0  0  0
    3.8230   -5.8559    0.0000 C   0  0  0  0  0  0  0  0  0  0  0  0
    2.9980   -5.8559    0.0000 C   0  0  0  0  0  0  0  0  0  0  0  0
    2.5855   -6.5704    0.0000 C   0  0  0  0  0  0  0  0  0  0  0  0
    1.7605   -6.5704    0.0000 C   0  0  0  0  0  0  0  0  0  0  0  0
    1.3480   -5.8559    0.0000 C   0  0  0  0  0  0  0  0  0  0  0  0
    1.7605   -3.7125    0.0000 S   0  0  0  0  0  0  0  0  0  0  0  0
    2.4750   -4.1250    0.0000 C   0  0  0  0  0  0  0  0  0  0  0  0
    1.0461   -3.3000    0.0000 O   0  0  0  0  0  0  0  0  0  0  0  0
    2.1730   -2.9980    0.0000 O   0  0  0  0  0  0  0  0  0  0  0  0
   -2.5353   -1.9876    0.0000 C   0  0  0  0  0  0  0  0  0  0  0  0
   -2.9478   -1.2731    0.0000 C   0  0  0  0  0  0  0  0  0  0  0  0
  1  2  1  0  0  0  0
  2  3  1  0  0  0  0
  2  4  1  0  0  0  0
  2  5  1  0  0  0  0
  5  6  1  0  0  0  0
  6  7  2  0  0  0  0
  6  8  1  0  0  0  0
  8  9  1  0  0  0  0
  9 10  1  0  0  0  0
 10 11  1  0  0  0  0
 11 12  1  0  0  0  0
 12 13  1  0  0  0  0
 13 14  1  0  0  0  0
 11 14  1  0  0  0  0
 13 15  1  0  0  0  0
 15 16  1  0  0  0  0
 16 17  2  0  0  0  0
 16 18  1  0  0  0  0
 18 19  1  0  0  0  0
 19 20  1  0  0  0  0
 20 21  2  0  0  0  0
 21 22  1  0  0  0  0
 22 23  2  0  0  0  0
 23 24  1  0  0  0  0
 24 25  2  0  0  0  0
 25 26  1  0  0  0  0
 21 26  1  0  0  0  0
 26 27  2  0  0  0  0
 27 28  1  0  0  0  0
 28 29  2  0  0  0  0
 20 29  1  0  0  0  0
 19 30  1  0  0  0  0
 30 31  1  0  0  0  0
 30 32  2  0  0  0  0
 30 33  2  0  0  0  0
 11 34  1  0  0  0  0
 34 35  1  0  0  0  0
  8 35  1  0  0  0  0
M  END
> <ID>
CPD_3802

$$$$
CPD_3807
  Mrv1822 09091914012D          

 35 38  0  0  0  0            999 V2000
   -0.8250   -2.4750    0.0000 C   0  0  0  0  0  0  0  0  0  0  0  0
    0.0000   -2.4750    0.0000 S   0  0  0  0  0  0  0  0  0  0  0  0
    0.8250   -2.4750    0.0000 O   0  0  0  0  0  0  0  0  0  0  0  0
    0.0000   -3.3000    0.0000 O   0  0  0  0  0  0  0  0  0  0  0  0
    0.0000   -1.6500    0.0000 N   0  0  0  0  0  0  0  0  0  0  0  0
    0.7145   -1.2375    0.0000 C   0  0  0  0  0  0  0  0  0  0  0  0
    1.4289   -1.6500    0.0000 C   0  0  0  0  0  0  0  0  0  0  0  0
    1.4289   -2.4750    0.0000 O   0  0  0  0  0  0  0  0  0  0  0  0
    2.1434   -1.2375    0.0000 O   0  0  0  0  0  0  0  0  0  0  0  0
    2.8579   -1.6500    0.0000 C   0  0  0  0  0  0  0  0  0  0  0  0
    3.5724   -1.2375    0.0000 C   0  0  0  0  0  0  0  0  0  0  0  0
    3.6586   -0.4170    0.0000 C   0  0  0  0  0  0  0  0  0  0  0  0
    4.4656   -0.2455    0.0000 N   0  0  0  0  0  0  0  0  0  0  0  0
    4.8781   -0.9600    0.0000 C   0  0  0  0  0  0  0  0  0  0  0  0
    4.3260   -1.5731    0.0000 N   0  0  0  0  0  0  0  0  0  0  0  0
    4.4976   -2.3800    0.0000 C   0  0  0  0  0  0  0  0  0  0  0  0
    5.2822   -2.6350    0.0000 C   0  0  0  0  0  0  0  0  0  0  0  0
    5.4537   -3.4419    0.0000 C   0  0  0  0  0  0  0  0  0  0  0  0
    4.8406   -3.9940    0.0000 C   0  0  0  0  0  0  0  0  0  0  0  0
    4.0560   -3.7390    0.0000 C   0  0  0  0  0  0  0  0  0  0  0  0
    3.8845   -2.9321    0.0000 C   0  0  0  0  0  0  0  0  0  0  0  0
    5.6985   -1.0462    0.0000 S   0  0  0  0  0  0  0  0  0  0  0  0
    6.5190   -1.1324    0.0000 C   0  0  0  0  0  0  0  0  0  0  0  0
    5.6123   -1.8667    0.0000 O   0  0  0  0  0  0  0  0  0  0  0  0
    5.7848   -0.2257    0.0000 O   0  0  0  0  0  0  0  0  0  0  0  0
   -0.7145   -1.2375    0.0000 C   0  0  0  0  0  0  0  0  0  0  0  0
   -1.4289   -1.6500    0.0000 C   0  0  0  0  0  0  0  0  0  0  0  0
   -1.4289   -2.4750    0.0000 C   0  0  0  0  0  0  0  0  0  0  0  0
   -2.1434   -2.8875    0.0000 C   0  0  0  0  0  0  0  0  0  0  0  0
   -2.8579   -2.4750    0.0000 C   0  0  0  0  0  0  0  0  0  0  0  0
   -2.8579   -1.6500    0.0000 C   0  0  0  0  0  0  0  0  0  0  0  0
   -2.1434   -1.2375    0.0000 C   0  0  0  0  0  0  0  0  0  0  0  0
   -2.1434   -0.4125    0.0000 C   0  0  0  0  0  0  0  0  0  0  0  0
   -1.4289   -0.0000    0.0000 C   0  0  0  0  0  0  0  0  0  0  0  0
   -0.7145   -0.4125    0.0000 C   0  0  0  0  0  0  0  0  0  0  0  0
  1  2  1  0  0  0  0
  2  3  2  0  0  0  0
  2  4  2  0  0  0  0
  2  5  1  0  0  0  0
  5  6  1  0  0  0  0
  6  7  1  0  0  0  0
  7  8  2  0  0  0  0
  7  9  1  0  0  0  0
  9 10  1  0  0  0  0
 10 11  1  0  0  0  0
 11 12  2  0  0  0  0
 12 13  1  0  0  0  0
 13 14  2  0  0  0  0
 14 15  1  0  0  0  0
 11 15  1  0  0  0  0
 15 16  1  0  0  0  0
 16 17  1  0  0  0  0
 17 18  1  0  0  0  0
 18 19  1  0  0  0  0
 19 20  1  0  0  0  0
 20 21  1  0  0  0  0
 16 21  1  0  0  0  0
 14 22  1  0  0  0  0
 22 23  1  0  0  0  0
 22 24  2  0  0  0  0
 22 25  2  0  0  0  0
  5 26  1  0  0  0  0
 26 27  2  0  0  0  0
 27 28  1  0  0  0  0
 28 29  2  0  0  0  0
 29 30  1  0  0  0  0
 30 31  2  0  0  0  0
 31 32  1  0  0  0  0
 27 32  1  0  0  0  0
 32 33  2  0  0  0  0
 33 34  1  0  0  0  0
 34 35  2  0  0  0  0
 26 35  1  0  0  0  0
M  END
> <ID>
CPD_3807

$$$$
CPD_3812
  Mrv1822 09091914012D          

 30 33  0  0  0  0            999 V2000
    3.8262    2.1449    0.0000 C   0  0  0  0  0  0  0  0  0  0  0  0
    3.3424    1.4358    0.0000 N   0  0  0  0  0  0  0  0  0  0  0  0
    2.5267    1.0111    0.0000 C   0  0  0  0  0  0  0  0  0  0  0  0
    2.3901    1.8789    0.0000 C   0  0  0  0  0  0  0  0  0  0  0  0
    3.1813    0.4396    0.0000 C   0  0  0  0  0  0  0  0  0  0  0  0
    1.6513    0.6032    0.0000 C   0  0  0  0  0  0  0  0  0  0  0  0
    1.5019   -0.3005    0.0000 O   0  0  0  0  0  0  0  0  0  0  0  0
    0.6235    0.7972    0.0000 O   0  0  0  0  0  0  0  0  0  0  0  0
   -0.3984    0.7541    0.0000 C   0  0  0  0  0  0  0  0  0  0  0  0
   -1.1521    0.4186    0.0000 C   0  0  0  0  0  0  0  0  0  0  0  0
   -1.3182   -0.3985    0.0000 O   0  0  0  0  0  0  0  0  0  0  0  0
   -1.7042    1.0317    0.0000 N   0  0  0  0  0  0  0  0  0  0  0  0
   -2.5606    0.9924    0.0000 C   0  0  0  0  0  0  0  0  0  0  0  0
   -1.2917    1.7461    0.0000 C   0  0  0  0  0  0  0  0  0  0  0  0
   -0.4847    1.5746    0.0000 C   0  0  0  0  0  0  0  0  0  0  0  0
    0.0674    2.1877    0.0000 C   0  0  0  0  0  0  0  0  0  0  0  0
   -0.1876    2.9723    0.0000 C   0  0  0  0  0  0  0  0  0  0  0  0
    0.1625    3.7616    0.0000 Br  0  0  0  0  0  0  0  0  0  0  0  0
   -0.9946    3.1438    0.0000 C   0  0  0  0  0  0  0  0  0  0  0  0
   -1.5466    2.5307    0.0000 C   0  0  0  0  0  0  0  0  0  0  0  0
   -0.1435   -0.0305    0.0000 C   0  0  0  0  0  0  0  0  0  0  0  0
   -0.6284   -0.6979    0.0000 C   0  0  0  0  0  0  0  0  0  0  0  0
   -1.5886   -0.9601    0.0000 C   0  0  0  0  0  0  0  0  0  0  0  0
   -0.1435   -1.3654    0.0000 N   0  0  0  0  0  0  0  0  0  0  0  0
    0.6411   -1.1104    0.0000 C   0  0  0  0  0  0  0  0  0  0  0  0
    0.6411   -0.2854    0.0000 C   0  0  0  0  0  0  0  0  0  0  0  0
    1.3556    0.1271    0.0000 C   0  0  0  0  0  0  0  0  0  0  0  0
    2.0701   -0.2854    0.0000 C   0  0  0  0  0  0  0  0  0  0  0  0
    2.0701   -1.1104    0.0000 C   0  0  0  0  0  0  0  0  0  0  0  0
    1.3556   -1.5229    0.0000 C   0  0  0  0  0  0  0  0  0  0  0  0
  1  2  1  0  0  0  0
  2  3  1  0  0  0  0
  3  4  1  0  0  0  0
  3  5  1  0  0  0  0
  3  6  1  0  0  0  0
  6  7  2  0  0  0  0
  6  8  1  0  0  0  0
  8  9  1  0  0  0  0
  9 10  1  0  0  0  0
 10 11  2  0  0  0  0
 10 12  1  0  0  0  0
 12 13  1  0  0  0  0
 12 14  1  0  0  0  0
 14 15  2  0  0  0  0
  9 15  1  0  0  0  0
 15 16  1  0  0  0  0
 16 17  2  0  0  0  0
 17 18  1  0  0  0  0
 17 19  1  0  0  0  0
 19 20  2  0  0  0  0
 14 20  1  0  0  0  0
  9 21  1  0  0  0  0
 21 22  2  0  0  0  0
 22 23  1  0  0  0  0
 22 24  1  0  0  0  0
 24 25  1  0  0  0  0
 25 26  2  0  0  0  0
 21 26  1  0  0  0  0
 26 27  1  0  0  0  0
 27 28  2  0  0  0  0
 28 29  1  0  0  0  0
 29 30  2  0  0  0  0
 25 30  1  0  0  0  0
M  END
> <ID>
CPD_3812

$$$$
CPD_3817
  Mrv1822 09091914012D          

 25 27  0  0  0  0            999 V2000
   -1.2054    0.9256    0.0000 C   0  0  0  0  0  0  0  0  0  0  0  0
   -0.3984    0.7541    0.0000 C   0  0  0  0  0  0  0  0  0  0  0  0
    0.1536    1.3672    0.0000 C   0  0  0  0  0  0  0  0  0  0  0  0
   -0.1435   -0.0305    0.0000 N   0  0  0  0  0  0  0  0  0  0  0  0
   -0.6284   -0.6979    0.0000 C   0  0  0  0  0  0  0  0  0  0  0  0
   -0.1435   -1.3654    0.0000 C   0  0  0  0  0  0  0  0  0  0  0  0
    0.6411   -1.1104    0.0000 C   0  0  0  0  0  0  0  0  0  0  0  0
    0.6411   -0.2854    0.0000 C   0  0  0  0  0  0  0  0  0  0  0  0
    1.3556    0.1271    0.0000 C   0  0  0  0  0  0  0  0  0  0  0  0
    2.0701   -0.2854    0.0000 C   0  0  0  0  0  0  0  0  0  0  0  0
    2.0701   -1.1104    0.0000 C   0  0  0  0  0  0  0  0  0  0  0  0
    1.3556   -1.5229    0.0000 C   0  0  0  0  0  0  0  0  0  0  0  0
    2.7845   -1.5229    0.0000 C   0  0  0  0  0  0  0  0  0  0  0  0
    3.4990   -1.1104    0.0000 O   0  0  0  0  0  0  0  0  0  0  0  0
    2.7845   -2.3479    0.0000 O   0  0  0  0  0  0  0  0  0  0  0  0
    3.4990   -2.7604    0.0000 C   0  0  0  0  0  0  0  0  0  0  0  0
    3.4990   -3.5854    0.0000 C   0  0  0  0  0  0  0  0  0  0  0  0
    2.6740   -3.5854    0.0000 C   0  0  0  0  0  0  0  0  0  0  0  0
    4.3240   -3.5854    0.0000 O   0  0  0  0  0  0  0  0  0  0  0  0
    3.4990   -4.4104    0.0000 C   0  0  0  0  0  0  0  0  0  0  0  0
    4.2135   -4.8229    0.0000 C   0  0  0  0  0  0  0  0  0  0  0  0
    4.2135   -5.6479    0.0000 C   0  0  0  0  0  0  0  0  0  0  0  0
    3.4990   -6.0604    0.0000 C   0  0  0  0  0  0  0  0  0  0  0  0
    2.7845   -5.6479    0.0000 C   0  0  0  0  0  0  0  0  0  0  0  0
    2.7845   -4.8229    0.0000 C   0  0  0  0  0  0  0  0  0  0  0  0
  1  2  1  0  0  0  0
  2  3  1  0  0  0  0
  2  4  1  0  0  0  0
  4  5  1  0  0  0  0
  5  6  2  0  0  0  0
  6  7  1  0  0  0  0
  7  8  2  0  0  0  0
  4  8  1  0  0  0  0
  8  9  1  0  0  0  0
  9 10  2  0  0  0  0
 10 11  1  0  0  0  0
 11 12  2  0  0  0  0
  7 12  1  0  0  0  0
 11 13  1  0  0  0  0
 13 14  2  0  0  0  0
 13 15  1  0  0  0  0
 15 16  1  0  0  0  0
 16 17  1  0  0  0  0
 17 18  1  0  0  0  0
 17 19  1  0  0  0  0
 17 20  1  0  0  0  0
 20 21  2  0  0  0  0
 21 22  1  0  0  0  0
 22 23  2  0  0  0  0
 23 24  1  0  0  0  0
 24 25  2  0  0  0  0
 20 25  1  0  0  0  0
M  END
> <ID>
CPD_3817

$$$$
CPD_3822
  Mrv1822 09091914012D          

 31 34  0  0  0  0            999 V2000
    6.4302   -1.2375    0.0000 C   0  0  0  0  0  0  0  0  0  0  0  0
    7.1447   -1.6500    0.0000 C   0  0  0  0  0  0  0  0  0  0  0  0
    7.1447   -2.4750    0.0000 C   0  0  0  0  0  0  0  0  0  0  0  0
    7.8592   -2.8875    0.0000 C   0  0  0  0  0  0  0  0  0  0  0  0
    7.8592   -3.7125    0.0000 N   0  0  0  0  0  0  0  0  0  0  0  0
    7.1447   -4.1250    0.0000 C   0  0  0  0  0  0  0  0  0  0  0  0
    7.1447   -4.9500    0.0000 O   0  0  0  0  0  0  0  0  0  0  0  0
    7.8592   -5.3625    0.0000 C   0  0  0  0  0  0  0  0  0  0  0  0
    8.5737   -4.9500    0.0000 O   0  0  0  0  0  0  0  0  0  0  0  0
    7.8592   -6.1875    0.0000 C   0  0  0  0  0  0  0  0  0  0  0  0
    8.5737   -6.6000    0.0000 C   0  0  0  0  0  0  0  0  0  0  0  0
    8.5737   -7.4250    0.0000 C   0  0  0  0  0  0  0  0  0  0  0  0
    7.8592   -7.8375    0.0000 C   0  0  0  0  0  0  0  0  0  0  0  0
    7.8592   -8.6625    0.0000 O   0  0  0  0  0  0  0  0  0  0  0  0
    8.5737   -9.0750    0.0000 C   0  0  0  0  0  0  0  0  0  0  0  0
    9.2881   -8.6625    0.0000 N   0  0  0  0  0  0  0  0  0  0  0  0
   10.0026   -9.0750    0.0000 C   0  0  0  0  0  0  0  0  0  0  0  0
   10.0026   -9.9000    0.0000 C   0  0  0  0  0  0  0  0  0  0  0  0
    9.2881  -10.3125    0.0000 N   0  0  0  0  0  0  0  0  0  0  0  0
    8.5737   -9.9000    0.0000 C   0  0  0  0  0  0  0  0  0  0  0  0
    7.8592  -10.3125    0.0000 N   0  0  0  0  0  0  0  0  0  0  0  0
    7.8592  -11.1375    0.0000 C   0  0  0  0  0  0  0  0  0  0  0  0
    7.1447  -11.5500    0.0000 C   0  0  0  0  0  0  0  0  0  0  0  0
    6.4302  -11.1375    0.0000 C   0  0  0  0  0  0  0  0  0  0  0  0
    5.7158  -11.5500    0.0000 C   0  0  0  0  0  0  0  0  0  0  0  0
    6.4302  -10.3125    0.0000 C   0  0  0  0  0  0  0  0  0  0  0  0
    7.1447   -9.9000    0.0000 C   0  0  0  0  0  0  0  0  0  0  0  0
    7.1447   -7.4250    0.0000 C   0  0  0  0  0  0  0  0  0  0  0  0
    7.1447   -6.6000    0.0000 C   0  0  0  0  0  0  0  0  0  0  0  0
    6.4302   -3.7125    0.0000 N   0  0  0  0  0  0  0  0  0  0  0  0
    6.4302   -2.8875    0.0000 C   0  0  0  0  0  0  0  0  0  0  0  0
  1  2  1  0  0  0  0
  2  3  1  0  0  0  0
  3  4  2  0  0  0  0
  4  5  1  0  0  0  0
  5  6  2  0  0  0  0
  6  7  1  0  0  0  0
  7  8  1  0  0  0  0
  8  9  2  0  0  0  0
  8 10  1  0  0  0  0
 10 11  2  0  0  0  0
 11 12  1  0  0  0  0
 12 13  2  0  0  0  0
 13 14  1  0  0  0  0
 14 15  1  0  0  0  0
 15 16  2  0  0  0  0
 16 17  1  0  0  0  0
 17 18  2  0  0  0  0
 18 19  1  0  0  0  0
 19 20  2  0  0  0  0
 15 20  1  0  0  0  0
 20 21  1  0  0  0  0
 21 22  1  0  0  0  0
 22 23  1  0  0  0  0
 23 24  1  0  0  0  0
 24 25  1  0  0  0  0
 24 26  1  0  0  0  0
 26 27  1  0  0  0  0
 21 27  1  0  0  0  0
 13 28  1  0  0  0  0
 28 29  2  0  0  0  0
 10 29  1  0  0  0  0
  6 30  1  0  0  0  0
 30 31  2  0  0  0  0
  3 31  1  0  0  0  0
M  END
> <ID>
CPD_3822

$$$$
CPD_3827
  Mrv1822 09091914012D          

 30 32  0  0  0  0            999 V2000
    2.8579   -4.1250    0.0000 C   0  0  0  0  0  0  0  0  0  0  0  0
    2.8579   -4.9500    0.0000 C   0  0  0  0  0  0  0  0  0  0  0  0
    2.1434   -5.3625    0.0000 C   0  0  0  0  0  0  0  0  0  0  0  0
    1.4289   -4.9500    0.0000 Br  0  0  0  0  0  0  0  0  0  0  0  0
    2.1434   -6.1875    0.0000 C   0  0  0  0  0  0  0  0  0  0  0  0
    1.4289   -6.6000    0.0000 C   0  0  0  0  0  0  0  0  0  0  0  0
    2.8579   -6.6000    0.0000 C   0  0  0  0  0  0  0  0  0  0  0  0
    2.8579   -7.4250    0.0000 C   0  0  0  0  0  0  0  0  0  0  0  0
    3.5724   -7.8375    0.0000 O   0  0  0  0  0  0  0  0  0  0  0  0
    2.1434   -7.8375    0.0000 O   0  0  0  0  0  0  0  0  0  0  0  0
    3.5724   -6.1875    0.0000 C   0  0  0  0  0  0  0  0  0  0  0  0
    4.2868   -6.6000    0.0000 O   0  0  0  0  0  0  0  0  0  0  0  0
    5.0013   -6.1875    0.0000 C   0  0  0  0  0  0  0  0  0  0  0  0
    5.0013   -5.3625    0.0000 O   0  0  0  0  0  0  0  0  0  0  0  0
    5.7158   -6.6000    0.0000 C   0  0  0  0  0  0  0  0  0  0  0  0
    6.4302   -6.1875    0.0000 C   0  0  0  0  0  0  0  0  0  0  0  0
    6.4302   -5.3625    0.0000 C   0  0  0  0  0  0  0  0  0  0  0  0
    7.1447   -4.9500    0.0000 C   0  0  0  0  0  0  0  0  0  0  0  0
    7.8592   -5.3625    0.0000 C   0  0  0  0  0  0  0  0  0  0  0  0
    7.8592   -6.1875    0.0000 C   0  0  0  0  0  0  0  0  0  0  0  0
    7.1447   -6.6000    0.0000 C   0  0  0  0  0  0  0  0  0  0  0  0
    8.5737   -6.6000    0.0000 C   0  0  0  0  0  0  0  0  0  0  0  0
    9.2881   -6.1875    0.0000 C   0  0  0  0  0  0  0  0  0  0  0  0
   10.0026   -6.6000    0.0000 C   0  0  0  0  0  0  0  0  0  0  0  0
   10.0026   -7.4250    0.0000 C   0  0  0  0  0  0  0  0  0  0  0  0
    9.2881   -7.8375    0.0000 C   0  0  0  0  0  0  0  0  0  0  0  0
    8.5737   -7.4250    0.0000 C   0  0  0  0  0  0  0  0  0  0  0  0
    9.2881   -8.6625    0.0000 C   0  0  0  0  0  0  0  0  0  0  0  0
    9.2881   -9.4875    0.0000 N   0  0  0  0  0  0  0  0  0  0  0  0
    3.5724   -5.3625    0.0000 N   0  0  0  0  0  0  0  0  0  0  0  0
  1  2  1  0  0  0  0
  2  3  2  0  0  0  0
  3  4  1  0  0  0  0
  3  5  1  0  0  0  0
  5  6  1  0  0  0  0
  5  7  2  0  0  0  0
  7  8  1  0  0  0  0
  8  9  1  0  0  0  0
  8 10  2  0  0  0  0
  7 11  1  0  0  0  0
 11 12  1  0  0  0  0
 12 13  1  0  0  0  0
 13 14  2  0  0  0  0
 13 15  1  0  0  0  0
 15 16  1  0  0  0  0
 16 17  2  0  0  0  0
 17 18  1  0  0  0  0
 18 19  2  0  0  0  0
 19 20  1  0  0  0  0
 20 21  2  0  0  0  0
 16 21  1  0  0  0  0
 20 22  1  0  0  0  0
 22 23  2  0  0  0  0
 23 24  1  0  0  0  0
 24 25  2  0  0  0  0
 25 26  1  0  0  0  0
 26 27  2  0  0  0  0
 22 27  1  0  0  0  0
 26 28  1  0  0  0  0
 28 29  3  0  0  0  0
 11 30  2  0  0  0  0
  2 30  1  0  0  0  0
M  END
> <ID>
CPD_3827

$$$$
CPD_3832
  Mrv1822 09091914012D          

 28 30  0  0  0  0            999 V2000
    2.1434   -3.7125    0.0000 C   0  0  0  0  0  0  0  0  0  0  0  0
    2.8579   -4.1250    0.0000 O   0  0  0  0  0  0  0  0  0  0  0  0
    2.8579   -4.9500    0.0000 C   0  0  0  0  0  0  0  0  0  0  0  0
    3.5724   -5.3625    0.0000 C   0  0  0  0  0  0  0  0  0  0  0  0
    4.2868   -4.9500    0.0000 O   0  0  0  0  0  0  0  0  0  0  0  0
    4.2868   -4.1250    0.0000 C   0  0  0  0  0  0  0  0  0  0  0  0
    3.5724   -3.7125    0.0000 O   0  0  0  0  0  0  0  0  0  0  0  0
    5.0013   -3.7125    0.0000 C   0  0  0  0  0  0  0  0  0  0  0  0
    5.0013   -2.8875    0.0000 C   0  0  0  0  0  0  0  0  0  0  0  0
    4.2868   -2.4750    0.0000 C   0  0  0  0  0  0  0  0  0  0  0  0
    4.2868   -1.6500    0.0000 C   0  0  0  0  0  0  0  0  0  0  0  0
    5.0013   -1.2375    0.0000 C   0  0  0  0  0  0  0  0  0  0  0  0
    5.7158   -1.6500    0.0000 C   0  0  0  0  0  0  0  0  0  0  0  0
    5.7158   -2.4750    0.0000 C   0  0  0  0  0  0  0  0  0  0  0  0
    6.4302   -1.2375    0.0000 C   0  0  0  0  0  0  0  0  0  0  0  0
    6.4302   -0.4125    0.0000 C   0  0  0  0  0  0  0  0  0  0  0  0
    7.1447   -0.0000    0.0000 C   0  0  0  0  0  0  0  0  0  0  0  0
    7.8592   -0.4125    0.0000 C   0  0  0  0  0  0  0  0  0  0  0  0
    7.8592   -1.2375    0.0000 C   0  0  0  0  0  0  0  0  0  0  0  0
    7.1447   -1.6500    0.0000 C   0  0  0  0  0  0  0  0  0  0  0  0
    8.5737   -1.6500    0.0000 C   0  0  0  0  0  0  0  0  0  0  0  0
    9.2881   -2.0625    0.0000 N   0  0  0  0  0  0  0  0  0  0  0  0
    3.5724   -6.1875    0.0000 C   0  0  0  0  0  0  0  0  0  0  0  0
    2.8579   -6.6000    0.0000 C   0  0  0  0  0  0  0  0  0  0  0  0
    2.1434   -6.1875    0.0000 C   0  0  0  0  0  0  0  0  0  0  0  0
    2.1434   -5.3625    0.0000 C   0  0  0  0  0  0  0  0  0  0  0  0
    4.2868   -6.6000    0.0000 C   0  0  0  0  0  0  0  0  0  0  0  0
    5.0013   -7.0125    0.0000 N   0  0  0  0  0  0  0  0  0  0  0  0
  1  2  1  0  0  0  0
  2  3  1  0  0  0  0
  3  4  2  0  0  0  0
  4  5  1  0  0  0  0
  5  6  1  0  0  0  0
  6  7  2  0  0  0  0
  6  8  1  0  0  0  0
  8  9  1  0  0  0  0
  9 10  2  0  0  0  0
 10 11  1  0  0  0  0
 11 12  2  0  0  0  0
 12 13  1  0  0  0  0
 13 14  2  0  0  0  0
  9 14  1  0  0  0  0
 13 15  1  0  0  0  0
 15 16  2  0  0  0  0
 16 17  1  0  0  0  0
 17 18  2  0  0  0  0
 18 19  1  0  0  0  0
 19 20  2  0  0  0  0
 15 20  1  0  0  0  0
 19 21  1  0  0  0  0
 21 22  3  0  0  0  0
  4 23  1  0  0  0  0
 23 24  2  0  0  0  0
 24 25  1  0  0  0  0
 25 26  2  0  0  0  0
  3 26  1  0  0  0  0
 23 27  1  0  0  0  0
 27 28  3  0  0  0  0
M  END
> <ID>
CPD_3832

$$$$
CPD_3837
  Mrv1822 09091914012D          

 29 32  0  0  0  0            999 V2000
   -5.5244   -4.6701    0.0000 C   0  0  0  0  0  0  0  0  0  0  0  0
   -4.8099   -4.2576    0.0000 C   0  0  0  0  0  0  0  0  0  0  0  0
   -4.8099   -3.4326    0.0000 C   0  0  0  0  0  0  0  0  0  0  0  0
   -4.0954   -3.0201    0.0000 C   0  0  0  0  0  0  0  0  0  0  0  0
   -3.9239   -2.2131    0.0000 N   0  0  0  0  0  0  0  0  0  0  0  0
   -3.1034   -2.1269    0.0000 C   0  0  0  0  0  0  0  0  0  0  0  0
   -2.7679   -2.8806    0.0000 C   0  0  0  0  0  0  0  0  0  0  0  0
   -3.3810   -3.4326    0.0000 N   0  0  0  0  0  0  0  0  0  0  0  0
   -3.3810   -4.2576    0.0000 C   0  0  0  0  0  0  0  0  0  0  0  0
   -4.0954   -4.6701    0.0000 C   0  0  0  0  0  0  0  0  0  0  0  0
   -4.0954   -5.4951    0.0000 Br  0  0  0  0  0  0  0  0  0  0  0  0
   -2.6909   -1.4124    0.0000 C   0  0  0  0  0  0  0  0  0  0  0  0
   -3.1034   -0.6979    0.0000 O   0  0  0  0  0  0  0  0  0  0  0  0
   -1.8659   -1.4124    0.0000 O   0  0  0  0  0  0  0  0  0  0  0  0
   -1.4534   -0.6979    0.0000 C   0  0  0  0  0  0  0  0  0  0  0  0
   -0.6284   -0.6979    0.0000 C   0  0  0  0  0  0  0  0  0  0  0  0
   -0.1435   -1.3654    0.0000 N   0  0  0  0  0  0  0  0  0  0  0  0
    0.6411   -1.1104    0.0000 C   0  0  0  0  0  0  0  0  0  0  0  0
    0.6411   -0.2854    0.0000 C   0  0  0  0  0  0  0  0  0  0  0  0
    1.3556    0.1271    0.0000 C   0  0  0  0  0  0  0  0  0  0  0  0
    2.0701   -0.2854    0.0000 C   0  0  0  0  0  0  0  0  0  0  0  0
    2.0701   -1.1104    0.0000 C   0  0  0  0  0  0  0  0  0  0  0  0
    1.3556   -1.5229    0.0000 C   0  0  0  0  0  0  0  0  0  0  0  0
   -0.1435   -0.0305    0.0000 N   0  0  0  0  0  0  0  0  0  0  0  0
   -0.3984    0.7541    0.0000 C   0  0  0  0  0  0  0  0  0  0  0  0
   -1.2054    0.9256    0.0000 C   0  0  0  0  0  0  0  0  0  0  0  0
   -1.4604    1.7103    0.0000 C   0  0  0  0  0  0  0  0  0  0  0  0
   -0.9083    2.3234    0.0000 O   0  0  0  0  0  0  0  0  0  0  0  0
   -2.2673    1.8818    0.0000 O   0  0  0  0  0  0  0  0  0  0  0  0
  1  2  1  0  0  0  0
  2  3  2  0  0  0  0
  3  4  1  0  0  0  0
  4  5  2  0  0  0  0
  5  6  1  0  0  0  0
  6  7  2  0  0  0  0
  7  8  1  0  0  0  0
  4  8  1  0  0  0  0
  8  9  1  0  0  0  0
  9 10  2  0  0  0  0
  2 10  1  0  0  0  0
 10 11  1  0  0  0  0
  6 12  1  0  0  0  0
 12 13  2  0  0  0  0
 12 14  1  0  0  0  0
 14 15  1  0  0  0  0
 15 16  1  0  0  0  0
 16 17  2  0  0  0  0
 17 18  1  0  0  0  0
 18 19  2  0  0  0  0
 19 20  1  0  0  0  0
 20 21  2  0  0  0  0
 21 22  1  0  0  0  0
 22 23  2  0  0  0  0
 18 23  1  0  0  0  0
 19 24  1  0  0  0  0
 16 24  1  0  0  0  0
 24 25  1  0  0  0  0
 25 26  1  0  0  0  0
 26 27  1  0  0  0  0
 27 28  1  0  0  0  0
 27 29  2  0  0  0  0
M  END
> <ID>
CPD_3837

$$$$
CPD_3842
  Mrv1822 09091914012D          

 33 35  0  0  0  0            999 V2000
    7.2160   -0.6375    0.0000 C   0  0  0  0  0  0  0  0  0  0  0  0
    6.7310   -1.3049    0.0000 O   0  0  0  0  0  0  0  0  0  0  0  0
    5.9106   -1.2187    0.0000 C   0  0  0  0  0  0  0  0  0  0  0  0
    5.4256   -1.8861    0.0000 C   0  0  0  0  0  0  0  0  0  0  0  0
    4.6052   -1.7999    0.0000 C   0  0  0  0  0  0  0  0  0  0  0  0
    4.2696   -1.0462    0.0000 C   0  0  0  0  0  0  0  0  0  0  0  0
    4.7545   -0.3788    0.0000 C   0  0  0  0  0  0  0  0  0  0  0  0
    5.5750   -0.4650    0.0000 C   0  0  0  0  0  0  0  0  0  0  0  0
    3.4491   -0.9600    0.0000 C   0  0  0  0  0  0  0  0  0  0  0  0
    2.8971   -1.5731    0.0000 N   0  0  0  0  0  0  0  0  0  0  0  0
    2.1434   -1.2375    0.0000 C   0  0  0  0  0  0  0  0  0  0  0  0
    1.4289   -1.6500    0.0000 C   0  0  0  0  0  0  0  0  0  0  0  0
    1.4289   -2.4750    0.0000 O   0  0  0  0  0  0  0  0  0  0  0  0
    2.1434   -2.8875    0.0000 C   0  0  0  0  0  0  0  0  0  0  0  0
    2.1434   -3.7125    0.0000 O   0  0  0  0  0  0  0  0  0  0  0  0
    2.8579   -2.4750    0.0000 C   0  0  0  0  0  0  0  0  0  0  0  0
    3.5724   -2.8875    0.0000 C   0  0  0  0  0  0  0  0  0  0  0  0
    4.2868   -2.4750    0.0000 C   0  0  0  0  0  0  0  0  0  0  0  0
    5.0013   -2.8875    0.0000 C   0  0  0  0  0  0  0  0  0  0  0  0
    5.0013   -3.7125    0.0000 N   0  0  0  0  0  0  0  0  0  0  0  0
    4.2868   -4.1250    0.0000 C   0  0  0  0  0  0  0  0  0  0  0  0
    3.5724   -3.7125    0.0000 C   0  0  0  0  0  0  0  0  0  0  0  0
    3.1352   -4.4121    0.0000 F   0  0  0  0  0  0  0  0  0  0  0  0
    2.7479   -3.7413    0.0000 F   0  0  0  0  0  0  0  0  0  0  0  0
    5.7158   -4.1250    0.0000 C   0  0  0  0  0  0  0  0  0  0  0  0
    6.4302   -3.7125    0.0000 O   0  0  0  0  0  0  0  0  0  0  0  0
    5.7158   -4.9500    0.0000 O   0  0  0  0  0  0  0  0  0  0  0  0
    6.4302   -5.3625    0.0000 C   0  0  0  0  0  0  0  0  0  0  0  0
    7.1447   -5.7750    0.0000 C   0  0  0  0  0  0  0  0  0  0  0  0
    6.0177   -6.0770    0.0000 C   0  0  0  0  0  0  0  0  0  0  0  0
    6.8427   -4.6480    0.0000 C   0  0  0  0  0  0  0  0  0  0  0  0
    2.2296   -0.4170    0.0000 C   0  0  0  0  0  0  0  0  0  0  0  0
    3.0366   -0.2455    0.0000 S   0  0  0  0  0  0  0  0  0  0  0  0
  1  2  1  0  0  0  0
  2  3  1  0  0  0  0
  3  4  2  0  0  0  0
  4  5  1  0  0  0  0
  5  6  2  0  0  0  0
  6  7  1  0  0  0  0
  7  8  2  0  0  0  0
  3  8  1  0  0  0  0
  6  9  1  0  0  0  0
  9 10  2  0  0  0  0
 10 11  1  0  0  0  0
 11 12  1  0  0  0  0
 12 13  1  0  0  0  0
 13 14  1  0  0  0  0
 14 15  2  0  0  0  0
 14 16  1  0  0  0  0
 16 17  1  0  0  0  0
 17 18  1  0  0  0  0
 18 19  1  0  0  0  0
 19 20  1  0  0  0  0
 20 21  1  0  0  0  0
 21 22  1  0  0  0  0
 17 22  1  0  0  0  0
 22 23  1  0  0  0  0
 22 24  1  0  0  0  0
 20 25  1  0  0  0  0
 25 26  2  0  0  0  0
 25 27  1  0  0  0  0
 27 28  1  0  0  0  0
 28 29  1  0  0  0  0
 28 30  1  0  0  0  0
 28 31  1  0  0  0  0
 11 32  2  0  0  0  0
 32 33  1  0  0  0  0
  9 33  1  0  0  0  0
M  END
> <ID>
CPD_3842

$$$$
CPD_3847
  Mrv1822 09091914012D          

 30 32  0  0  0  0            999 V2000
   -4.2868   -5.7750    0.0000 C   0  0  0  0  0  0  0  0  0  0  0  0
   -3.5724   -5.3625    0.0000 C   0  0  0  0  0  0  0  0  0  0  0  0
   -3.1599   -6.0770    0.0000 C   0  0  0  0  0  0  0  0  0  0  0  0
   -3.9849   -4.6480    0.0000 C   0  0  0  0  0  0  0  0  0  0  0  0
   -2.8579   -4.9500    0.0000 O   0  0  0  0  0  0  0  0  0  0  0  0
   -2.8579   -4.1250    0.0000 C   0  0  0  0  0  0  0  0  0  0  0  0
   -3.5724   -3.7125    0.0000 O   0  0  0  0  0  0  0  0  0  0  0  0
   -2.1434   -3.7125    0.0000 N   0  0  0  0  0  0  0  0  0  0  0  0
   -2.1434   -2.8875    0.0000 C   0  0  0  0  0  0  0  0  0  0  0  0
   -1.4289   -2.4750    0.0000 C   0  0  0  0  0  0  0  0  0  0  0  0
   -0.7145   -2.8875    0.0000 C   0  0  0  0  0  0  0  0  0  0  0  0
    0.0000   -2.4750    0.0000 C   0  0  0  0  0  0  0  0  0  0  0  0
    0.7145   -2.8875    0.0000 C   0  0  0  0  0  0  0  0  0  0  0  0
    0.7145   -3.7125    0.0000 O   0  0  0  0  0  0  0  0  0  0  0  0
    1.4289   -2.4750    0.0000 O   0  0  0  0  0  0  0  0  0  0  0  0
    1.4289   -1.6500    0.0000 C   0  0  0  0  0  0  0  0  0  0  0  0
    0.7145   -1.2375    0.0000 C   0  0  0  0  0  0  0  0  0  0  0  0
    0.7145   -0.4125    0.0000 C   0  0  0  0  0  0  0  0  0  0  0  0
    1.4289    0.0000    0.0000 C   0  0  0  0  0  0  0  0  0  0  0  0
    1.4289    0.8250    0.0000 Cl  0  0  0  0  0  0  0  0  0  0  0  0
    2.1434   -0.4125    0.0000 C   0  0  0  0  0  0  0  0  0  0  0  0
    2.8579    0.0000    0.0000 C   0  0  0  0  0  0  0  0  0  0  0  0
    3.5724   -0.4125    0.0000 C   0  0  0  0  0  0  0  0  0  0  0  0
    3.5724   -1.2375    0.0000 C   0  0  0  0  0  0  0  0  0  0  0  0
    2.8579   -1.6500    0.0000 N   0  0  0  0  0  0  0  0  0  0  0  0
    2.1434   -1.2375    0.0000 C   0  0  0  0  0  0  0  0  0  0  0  0
   -0.7145   -3.7125    0.0000 C   0  0  0  0  0  0  0  0  0  0  0  0
    0.0980   -3.5692    0.0000 F   0  0  0  0  0  0  0  0  0  0  0  0
   -0.4323   -4.4877    0.0000 F   0  0  0  0  0  0  0  0  0  0  0  0
   -1.4289   -4.1250    0.0000 C   0  0  0  0  0  0  0  0  0  0  0  0
  1  2  1  0  0  0  0
  2  3  1  0  0  0  0
  2  4  1  0  0  0  0
  2  5  1  0  0  0  0
  5  6  1  0  0  0  0
  6  7  2  0  0  0  0
  6  8  1  0  0  0  0
  8  9  1  0  0  0  0
  9 10  1  0  0  0  0
 10 11  1  0  0  0  0
 11 12  1  0  0  0  0
 12 13  1  0  0  0  0
 13 14  2  0  0  0  0
 13 15  1  0  0  0  0
 15 16  1  0  0  0  0
 16 17  2  0  0  0  0
 17 18  1  0  0  0  0
 18 19  2  0  0  0  0
 19 20  1  0  0  0  0
 19 21  1  0  0  0  0
 21 22  2  0  0  0  0
 22 23  1  0  0  0  0
 23 24  2  0  0  0  0
 24 25  1  0  0  0  0
 25 26  2  0  0  0  0
 16 26  1  0  0  0  0
 21 26  1  0  0  0  0
 11 27  1  0  0  0  0
 27 28  1  0  0  0  0
 27 29  1  0  0  0  0
 27 30  1  0  0  0  0
  8 30  1  0  0  0  0
M  END
> <ID>
CPD_3847

$$$$
CPD_3852
  Mrv1822 09091914012D          

 36 39  0  0  0  0            999 V2000
    2.5600    0.7927    0.0000 C   0  0  0  0  0  0  0  0  0  0  0  0
    1.9469    1.3448    0.0000 C   0  0  0  0  0  0  0  0  0  0  0  0
    2.5600    1.8968    0.0000 C   0  0  0  0  0  0  0  0  0  0  0  0
    1.4620    0.6773    0.0000 S   0  0  0  0  0  0  0  0  0  0  0  0
    0.6773    0.9323    0.0000 C   0  0  0  0  0  0  0  0  0  0  0  0
   -0.1477    0.9323    0.0000 C   0  0  0  0  0  0  0  0  0  0  0  0
   -0.7310    0.3489    0.0000 N   0  0  0  0  0  0  0  0  0  0  0  0
   -1.5279    0.5624    0.0000 C   0  0  0  0  0  0  0  0  0  0  0  0
   -1.7414    1.3593    0.0000 O   0  0  0  0  0  0  0  0  0  0  0  0
   -2.1113   -0.0209    0.0000 C   0  0  0  0  0  0  0  0  0  0  0  0
   -1.8977   -0.8178    0.0000 N   0  0  0  0  0  0  0  0  0  0  0  0
   -2.9082    0.1926    0.0000 C   0  0  0  0  0  0  0  0  0  0  0  0
   -3.4915   -0.3908    0.0000 C   0  0  0  0  0  0  0  0  0  0  0  0
   -4.2884   -0.1772    0.0000 C   0  0  0  0  0  0  0  0  0  0  0  0
   -4.5019    0.6197    0.0000 C   0  0  0  0  0  0  0  0  0  0  0  0
   -5.2988    0.8332    0.0000 O   0  0  0  0  0  0  0  0  0  0  0  0
   -3.9186    1.2030    0.0000 C   0  0  0  0  0  0  0  0  0  0  0  0
   -3.1217    0.9895    0.0000 C   0  0  0  0  0  0  0  0  0  0  0  0
   -0.1477    1.7573    0.0000 C   0  0  0  0  0  0  0  0  0  0  0  0
   -0.7310    2.3406    0.0000 O   0  0  0  0  0  0  0  0  0  0  0  0
    0.6773    1.7573    0.0000 N   0  0  0  0  0  0  0  0  0  0  0  0
    1.4620    2.0122    0.0000 C   0  0  0  0  0  0  0  0  0  0  0  0
    1.7169    2.7968    0.0000 C   0  0  0  0  0  0  0  0  0  0  0  0
    1.1649    3.4099    0.0000 O   0  0  0  0  0  0  0  0  0  0  0  0
    2.5239    2.9684    0.0000 O   0  0  0  0  0  0  0  0  0  0  0  0
    2.7788    3.7530    0.0000 C   0  0  0  0  0  0  0  0  0  0  0  0
    3.5858    3.9245    0.0000 C   0  0  0  0  0  0  0  0  0  0  0  0
    3.8407    4.7091    0.0000 C   0  0  0  0  0  0  0  0  0  0  0  0
    4.6477    4.8807    0.0000 C   0  0  0  0  0  0  0  0  0  0  0  0
    5.1997    4.2676    0.0000 C   0  0  0  0  0  0  0  0  0  0  0  0
    4.9448    3.4829    0.0000 C   0  0  0  0  0  0  0  0  0  0  0  0
    5.4968    2.8699    0.0000 Cl  0  0  0  0  0  0  0  0  0  0  0  0
    4.1378    3.3114    0.0000 C   0  0  0  0  0  0  0  0  0  0  0  0
    4.9026    5.6653    0.0000 C   0  0  0  0  0  0  0  0  0  0  0  0
    5.7096    5.8368    0.0000 O   0  0  0  0  0  0  0  0  0  0  0  0
    4.3506    6.2784    0.0000 O   0  0  0  0  0  0  0  0  0  0  0  0
  1  2  1  0  0  0  0
  2  3  1  0  0  0  0
  2  4  1  0  0  0  0
  4  5  1  0  0  0  0
  5  6  1  0  0  0  0
  6  7  1  0  0  0  0
  7  8  1  0  0  0  0
  8  9  2  0  0  0  0
  8 10  1  0  0  0  0
 10 11  1  0  0  0  0
 10 12  1  0  0  0  0
 12 13  2  0  0  0  0
 13 14  1  0  0  0  0
 14 15  2  0  0  0  0
 15 16  1  0  0  0  0
 15 17  1  0  0  0  0
 17 18  2  0  0  0  0
 12 18  1  0  0  0  0
  6 19  1  0  0  0  0
 19 20  2  0  0  0  0
 19 21  1  0  0  0  0
  5 21  1  0  0  0  0
 21 22  1  0  0  0  0
  2 22  1  0  0  0  0
 22 23  1  0  0  0  0
 23 24  2  0  0  0  0
 23 25  1  0  0  0  0
 25 26  1  0  0  0  0
 26 27  1  0  0  0  0
 27 28  2  0  0  0  0
 28 29  1  0  0  0  0
 29 30  2  0  0  0  0
 30 31  1  0  0  0  0
 31 32  1  0  0  0  0
 31 33  2  0  0  0  0
 27 33  1  0  0  0  0
 29 34  1  0  0  0  0
 34 35  1  0  0  0  0
 34 36  2  0  0  0  0
M  END
> <ID>
CPD_3852

$$$$
CPD_3857
  Mrv1822 09091914012D          

 38 41  0  0  0  0            999 V2000
   -0.0422   -2.6922    0.0000 C   0  0  0  0  0  0  0  0  0  0  0  0
    0.7425   -2.4373    0.0000 C   0  0  0  0  0  0  0  0  0  0  0  0
    1.5271   -2.1823    0.0000 C   0  0  0  0  0  0  0  0  0  0  0  0
    0.4875   -1.6527    0.0000 O   0  0  0  0  0  0  0  0  0  0  0  0
    1.0396   -1.0396    0.0000 C   0  0  0  0  0  0  0  0  0  0  0  0
    1.8465   -1.2111    0.0000 O   0  0  0  0  0  0  0  0  0  0  0  0
    0.7846   -0.2549    0.0000 C   0  0  0  0  0  0  0  0  0  0  0  0
    0.0000    0.0000    0.0000 N   0  0  0  0  0  0  0  0  0  0  0  0
   -0.0000    0.8250    0.0000 C   0  0  0  0  0  0  0  0  0  0  0  0
    0.7846    1.0799    0.0000 S   0  0  0  0  0  0  0  0  0  0  0  0
    1.2695    0.4125    0.0000 C   0  0  0  0  0  0  0  0  0  0  0  0
    1.9883    0.8175    0.0000 C   0  0  0  0  0  0  0  0  0  0  0  0
    1.9883    0.0075    0.0000 C   0  0  0  0  0  0  0  0  0  0  0  0
   -0.8250    0.8250    0.0000 C   0  0  0  0  0  0  0  0  0  0  0  0
   -1.4084    1.4084    0.0000 N   0  0  0  0  0  0  0  0  0  0  0  0
   -2.2053    1.1948    0.0000 C   0  0  0  0  0  0  0  0  0  0  0  0
   -2.4188    0.3979    0.0000 O   0  0  0  0  0  0  0  0  0  0  0  0
   -2.7886    1.7782    0.0000 C   0  0  0  0  0  0  0  0  0  0  0  0
   -2.5751    2.5751    0.0000 N   0  0  0  0  0  0  0  0  0  0  0  0
   -3.5855    1.5647    0.0000 C   0  0  0  0  0  0  0  0  0  0  0  0
   -3.7990    0.7678    0.0000 C   0  0  0  0  0  0  0  0  0  0  0  0
   -4.5959    0.5543    0.0000 C   0  0  0  0  0  0  0  0  0  0  0  0
   -5.1793    1.1376    0.0000 C   0  0  0  0  0  0  0  0  0  0  0  0
   -5.9762    0.9241    0.0000 O   0  0  0  0  0  0  0  0  0  0  0  0
   -4.9658    1.9345    0.0000 C   0  0  0  0  0  0  0  0  0  0  0  0
   -4.1689    2.1480    0.0000 C   0  0  0  0  0  0  0  0  0  0  0  0
   -0.8250   -0.0000    0.0000 C   0  0  0  0  0  0  0  0  0  0  0  0
   -1.4084   -0.5834    0.0000 O   0  0  0  0  0  0  0  0  0  0  0  0
    0.9974   -3.2219    0.0000 C   0  0  0  0  0  0  0  0  0  0  0  0
    1.8044   -3.3934    0.0000 O   0  0  0  0  0  0  0  0  0  0  0  0
    0.4454   -3.8350    0.0000 O   0  0  0  0  0  0  0  0  0  0  0  0
    0.7003   -4.6196    0.0000 C   0  0  0  0  0  0  0  0  0  0  0  0
    0.1483   -5.2327    0.0000 C   0  0  0  0  0  0  0  0  0  0  0  0
    0.4032   -6.0173    0.0000 C   0  0  0  0  0  0  0  0  0  0  0  0
   -0.1488   -6.6304    0.0000 C   0  0  0  0  0  0  0  0  0  0  0  0
   -0.9558   -6.4589    0.0000 C   0  0  0  0  0  0  0  0  0  0  0  0
   -1.2107   -5.6743    0.0000 C   0  0  0  0  0  0  0  0  0  0  0  0
   -0.6587   -5.0612    0.0000 C   0  0  0  0  0  0  0  0  0  0  0  0
  1  2  1  0  0  0  0
  2  3  1  0  0  0  0
  2  4  1  0  0  0  0
  4  5  1  0  0  0  0
  5  6  2  0  0  0  0
  5  7  1  0  0  0  0
  7  8  1  0  0  0  0
  8  9  1  0  0  0  0
  9 10  1  0  0  0  0
 10 11  1  0  0  0  0
  7 11  1  0  0  0  0
 11 12  1  0  0  0  0
 11 13  1  0  0  0  0
  9 14  1  0  0  0  0
 14 15  1  0  0  0  0
 15 16  1  0  0  0  0
 16 17  2  0  0  0  0
 16 18  1  0  0  0  0
 18 19  1  0  0  0  0
 18 20  1  0  0  0  0
 20 21  2  0  0  0  0
 21 22  1  0  0  0  0
 22 23  2  0  0  0  0
 23 24  1  0  0  0  0
 23 25  1  0  0  0  0
 25 26  2  0  0  0  0
 20 26  1  0  0  0  0
 14 27  1  0  0  0  0
  8 27  1  0  0  0  0
 27 28  2  0  0  0  0
  2 29  1  0  0  0  0
 29 30  2  0  0  0  0
 29 31  1  0  0  0  0
 31 32  1  0  0  0  0
 32 33  1  0  0  0  0
 33 34  2  0  0  0  0
 34 35  1  0  0  0  0
 35 36  2  0  0  0  0
 36 37  1  0  0  0  0
 37 38  2  0  0  0  0
 33 38  1  0  0  0  0
M  END
> <ID>
CPD_3857

$$$$
CPD_3862
  Mrv1822 09091914012D          

 26 29  0  0  0  0            999 V2000
    1.3222    7.2402    0.0000 C   0  0  0  0  0  0  0  0  0  0  0  0
    2.0367    6.8277    0.0000 C   0  0  0  0  0  0  0  0  0  0  0  0
    2.7512    7.2402    0.0000 C   0  0  0  0  0  0  0  0  0  0  0  0
    3.4656    6.8277    0.0000 C   0  0  0  0  0  0  0  0  0  0  0  0
    3.4656    6.0027    0.0000 C   0  0  0  0  0  0  0  0  0  0  0  0
    2.7512    5.5902    0.0000 C   0  0  0  0  0  0  0  0  0  0  0  0
    2.0367    6.0027    0.0000 C   0  0  0  0  0  0  0  0  0  0  0  0
    4.1801    5.5902    0.0000 C   0  0  0  0  0  0  0  0  0  0  0  0
    4.8946    6.0027    0.0000 C   0  0  0  0  0  0  0  0  0  0  0  0
    5.6091    5.5902    0.0000 C   0  0  0  0  0  0  0  0  0  0  0  0
    5.6091    4.7652    0.0000 C   0  0  0  0  0  0  0  0  0  0  0  0
    4.8946    4.3527    0.0000 C   0  0  0  0  0  0  0  0  0  0  0  0
    4.8946    3.5277    0.0000 O   0  0  0  0  0  0  0  0  0  0  0  0
    4.1801    3.1152    0.0000 C   0  0  0  0  0  0  0  0  0  0  0  0
    3.4656    3.5277    0.0000 O   0  0  0  0  0  0  0  0  0  0  0  0
    4.1801    2.2902    0.0000 C   0  0  0  0  0  0  0  0  0  0  0  0
    4.8476    1.8053    0.0000 N   0  0  0  0  0  0  0  0  0  0  0  0
    4.5926    1.0206    0.0000 O   0  0  0  0  0  0  0  0  0  0  0  0
    3.7676    1.0206    0.0000 C   0  0  0  0  0  0  0  0  0  0  0  0
    3.5127    1.8053    0.0000 C   0  0  0  0  0  0  0  0  0  0  0  0
    3.2827    0.3532    0.0000 C   0  0  0  0  0  0  0  0  0  0  0  0
    3.5376   -0.4314    0.0000 N   0  0  0  0  0  0  0  0  0  0  0  0
    2.8702   -0.9163    0.0000 C   0  0  0  0  0  0  0  0  0  0  0  0
    2.2028   -0.4314    0.0000 C   0  0  0  0  0  0  0  0  0  0  0  0
    2.4577    0.3532    0.0000 S   0  0  0  0  0  0  0  0  0  0  0  0
    4.1801    4.7652    0.0000 N   0  0  0  0  0  0  0  0  0  0  0  0
  1  2  1  0  0  0  0
  2  3  2  0  0  0  0
  3  4  1  0  0  0  0
  4  5  2  0  0  0  0
  5  6  1  0  0  0  0
  6  7  2  0  0  0  0
  2  7  1  0  0  0  0
  5  8  1  0  0  0  0
  8  9  2  0  0  0  0
  9 10  1  0  0  0  0
 10 11  2  0  0  0  0
 11 12  1  0  0  0  0
 12 13  1  0  0  0  0
 13 14  1  0  0  0  0
 14 15  2  0  0  0  0
 14 16  1  0  0  0  0
 16 17  2  0  0  0  0
 17 18  1  0  0  0  0
 18 19  1  0  0  0  0
 19 20  2  0  0  0  0
 16 20  1  0  0  0  0
 19 21  1  0  0  0  0
 21 22  2  0  0  0  0
 22 23  1  0  0  0  0
 23 24  2  0  0  0  0
 24 25  1  0  0  0  0
 21 25  1  0  0  0  0
 12 26  2  0  0  0  0
  8 26  1  0  0  0  0
M  END
> <ID>
CPD_3862

$$$$
CPD_3867
  Mrv1822 09091914012D          

 36 39  0  0  1  0            999 V2000
   -2.9980   -1.9520    0.0000 C   0  0  0  0  0  0  0  0  0  0  0  0
   -2.5855   -1.2375    0.0000 O   0  0  0  0  0  0  0  0  0  0  0  0
   -1.7605   -1.2375    0.0000 C   0  0  0  0  0  0  0  0  0  0  0  0
   -1.3480   -0.5230    0.0000 C   0  0  0  0  0  0  0  0  0  0  0  0
   -0.5230   -0.5230    0.0000 C   0  0  0  0  0  0  0  0  0  0  0  0
   -0.1105   -1.2375    0.0000 C   0  0  0  0  0  0  0  0  0  0  0  0
   -0.5230   -1.9520    0.0000 C   0  0  0  0  0  0  0  0  0  0  0  0
   -1.3480   -1.9520    0.0000 C   0  0  0  0  0  0  0  0  0  0  0  0
    0.7145   -1.2375    0.0000 C   0  0  0  0  0  0  0  0  0  0  0  0
    1.5395   -1.2375    0.0000 O   0  0  0  0  0  0  0  0  0  0  0  0
    1.9520   -1.9520    0.0000 C   0  0  0  0  0  0  0  0  0  0  0  0
    1.5395   -2.6664    0.0000 O   0  0  0  0  0  0  0  0  0  0  0  0
    2.7770   -1.9520    0.0000 C   0  0  2  0  0  0  0  0  0  0  0  0
    3.2619   -1.2845    0.0000 C   0  0  2  0  0  0  0  0  0  0  0  0
    3.0070   -0.4999    0.0000 C   0  0  0  0  0  0  0  0  0  0  0  0
    3.5590    0.1132    0.0000 C   0  0  0  0  0  0  0  0  0  0  0  0
    4.1110    0.7263    0.0000 C   0  0  0  0  0  0  0  0  0  0  0  0
    4.0465   -1.5395    0.0000 C   0  0  0  0  0  0  0  0  0  0  0  0
    4.0465   -2.3645    0.0000 C   0  0  0  0  0  0  0  0  0  0  0  0
    3.2619   -2.6194    0.0000 N   0  0  0  0  0  0  0  0  0  0  0  0
    3.0070   -3.4040    0.0000 C   0  0  0  0  0  0  0  0  0  0  0  0
    2.2000   -3.5756    0.0000 O   0  0  0  0  0  0  0  0  0  0  0  0
    3.5590   -4.0171    0.0000 O   0  0  0  0  0  0  0  0  0  0  0  0
    4.3660   -3.8456    0.0000 C   0  0  0  0  0  0  0  0  0  0  0  0
    5.1729   -3.6741    0.0000 C   0  0  0  0  0  0  0  0  0  0  0  0
    4.5375   -4.6526    0.0000 C   0  0  0  0  0  0  0  0  0  0  0  0
    4.1944   -3.0386    0.0000 C   0  0  0  0  0  0  0  0  0  0  0  0
    0.7145   -2.0625    0.0000 C   0  0  0  0  0  0  0  0  0  0  0  0
    1.1270   -2.7770    0.0000 C   0  0  0  0  0  0  0  0  0  0  0  0
    0.3020   -2.7770    0.0000 C   0  0  0  0  0  0  0  0  0  0  0  0
    0.7145   -0.4125    0.0000 C   0  0  0  0  0  0  0  0  0  0  0  0
    0.0000    0.0000    0.0000 C   0  0  0  0  0  0  0  0  0  0  0  0
    0.0000    0.8250    0.0000 N   0  0  0  0  0  0  0  0  0  0  0  0
    0.7145    1.2375    0.0000 C   0  0  0  0  0  0  0  0  0  0  0  0
    1.4289    0.8250    0.0000 N   0  0  0  0  0  0  0  0  0  0  0  0
    1.4289    0.0000    0.0000 C   0  0  0  0  0  0  0  0  0  0  0  0
  1  2  1  0  0  0  0
  2  3  1  0  0  0  0
  3  4  2  0  0  0  0
  4  5  1  0  0  0  0
  5  6  2  0  0  0  0
  6  7  1  0  0  0  0
  7  8  2  0  0  0  0
  3  8  1  0  0  0  0
  6  9  1  0  0  0  0
  9 10  1  0  0  0  0
 10 11  1  0  0  0  0
 11 12  2  0  0  0  0
 13 11  1  6  0  0  0
 13 14  1  0  0  0  0
 14 15  1  6  0  0  0
 15 16  1  0  0  0  0
 16 17  3  0  0  0  0
 14 18  1  0  0  0  0
 18 19  1  0  0  0  0
 19 20  1  0  0  0  0
 13 20  1  0  0  0  0
 20 21  1  0  0  0  0
 21 22  2  0  0  0  0
 21 23  1  0  0  0  0
 23 24  1  0  0  0  0
 24 25  1  0  0  0  0
 24 26  1  0  0  0  0
 24 27  1  0  0  0  0
  9 28  1  0  0  0  0
 28 29  1  0  0  0  0
 29 30  1  0  0  0  0
 28 30  1  0  0  0  0
  9 31  1  0  0  0  0
 31 32  2  0  0  0  0
 32 33  1  0  0  0  0
 33 34  2  0  0  0  0
 34 35  1  0  0  0  0
 35 36  2  0  0  0  0
 31 36  1  0  0  0  0
M  END
> <ID>
CPD_3867

$$$$
CPD_3872
  Mrv1822 09091914012D          

 27 27  0  0  1  0            999 V2000
   -4.9733   -3.2623    0.0000 C   0  0  0  0  0  0  0  0  0  0  0  0
   -4.2588   -2.8498    0.0000 C   0  0  0  0  0  0  0  0  0  0  0  0
   -3.5444   -3.2623    0.0000 C   0  0  0  0  0  0  0  0  0  0  0  0
   -2.8299   -2.8498    0.0000 C   0  0  0  0  0  0  0  0  0  0  0  0
   -2.1154   -3.2623    0.0000 C   0  0  0  0  0  0  0  0  0  0  0  0
   -1.4009   -2.8498    0.0000 C   0  0  0  0  0  0  0  0  0  0  0  0
   -0.6865   -2.4373    0.0000 C   0  0  0  0  0  0  0  0  0  0  0  0
    0.0280   -2.0248    0.0000 C   0  0  0  0  0  0  0  0  0  0  0  0
    0.7425   -2.4373    0.0000 C   0  0  0  0  0  0  0  0  0  0  0  0
    1.4569   -2.0248    0.0000 O   0  0  0  0  0  0  0  0  0  0  0  0
    2.1714   -2.4373    0.0000 C   0  0  0  0  0  0  0  0  0  0  0  0
    2.1714   -3.2623    0.0000 O   0  0  0  0  0  0  0  0  0  0  0  0
    2.8859   -2.0248    0.0000 C   0  0  2  0  0  0  0  0  0  0  0  0
    2.9721   -1.2043    0.0000 C   0  0  2  0  0  0  0  0  0  0  0  0
    2.3590   -0.6523    0.0000 C   0  0  0  0  0  0  0  0  0  0  0  0
    2.5305    0.1547    0.0000 C   0  0  0  0  0  0  0  0  0  0  0  0
    2.7021    0.9617    0.0000 C   0  0  0  0  0  0  0  0  0  0  0  0
    3.7791   -1.0328    0.0000 C   0  0  0  0  0  0  0  0  0  0  0  0
    4.1916   -1.7472    0.0000 C   0  0  0  0  0  0  0  0  0  0  0  0
    3.6396   -2.3603    0.0000 N   0  0  0  0  0  0  0  0  0  0  0  0
    3.8111   -3.1673    0.0000 C   0  0  0  0  0  0  0  0  0  0  0  0
    3.1980   -3.7193    0.0000 O   0  0  0  0  0  0  0  0  0  0  0  0
    4.5957   -3.4222    0.0000 O   0  0  0  0  0  0  0  0  0  0  0  0
    5.2088   -2.8702    0.0000 C   0  0  0  0  0  0  0  0  0  0  0  0
    5.8219   -2.3182    0.0000 C   0  0  0  0  0  0  0  0  0  0  0  0
    5.7608   -3.4833    0.0000 C   0  0  0  0  0  0  0  0  0  0  0  0
    4.6568   -2.2571    0.0000 C   0  0  0  0  0  0  0  0  0  0  0  0
  1  2  1  0  0  0  0
  2  3  1  0  0  0  0
  3  4  1  0  0  0  0
  4  5  1  0  0  0  0
  5  6  1  0  0  0  0
  6  7  3  0  0  0  0
  7  8  1  0  0  0  0
  8  9  1  0  0  0  0
  9 10  1  0  0  0  0
 10 11  1  0  0  0  0
 11 12  2  0  0  0  0
 13 11  1  6  0  0  0
 13 14  1  0  0  0  0
 14 15  1  6  0  0  0
 15 16  1  0  0  0  0
 16 17  3  0  0  0  0
 14 18  1  0  0  0  0
 18 19  1  0  0  0  0
 19 20  1  0  0  0  0
 13 20  1  0  0  0  0
 20 21  1  0  0  0  0
 21 22  2  0  0  0  0
 21 23  1  0  0  0  0
 23 24  1  0  0  0  0
 24 25  1  0  0  0  0
 24 26  1  0  0  0  0
 24 27  1  0  0  0  0
M  END
> <ID>
CPD_3872

$$$$
CPD_3877
  Mrv1822 09091914012D          

 26 27  0  0  0  0            999 V2000
    0.7145   -1.2375    0.0000 O   0  0  0  0  0  0  0  0  0  0  0  0
    1.4289   -1.6500    0.0000 C   0  0  0  0  0  0  0  0  0  0  0  0
    2.1434   -1.2375    0.0000 O   0  0  0  0  0  0  0  0  0  0  0  0
    1.4289   -2.4750    0.0000 C   0  0  0  0  0  0  0  0  0  0  0  0
    2.1434   -2.8875    0.0000 C   0  0  0  0  0  0  0  0  0  0  0  0
    2.1434   -3.7125    0.0000 C   0  0  0  0  0  0  0  0  0  0  0  0
    2.8579   -4.1250    0.0000 Cl  0  0  0  0  0  0  0  0  0  0  0  0
    1.4289   -4.1250    0.0000 C   0  0  0  0  0  0  0  0  0  0  0  0
    0.7145   -3.7125    0.0000 N   0  0  0  0  0  0  0  0  0  0  0  0
    0.7145   -2.8875    0.0000 C   0  0  0  0  0  0  0  0  0  0  0  0
    0.0000   -2.4750    0.0000 O   0  0  0  0  0  0  0  0  0  0  0  0
   -0.7145   -2.8875    0.0000 C   0  0  0  0  0  0  0  0  0  0  0  0
   -0.7145   -3.7125    0.0000 O   0  0  0  0  0  0  0  0  0  0  0  0
   -1.4289   -2.4750    0.0000 C   0  0  0  0  0  0  0  0  0  0  0  0
   -2.1434   -2.8875    0.0000 C   0  0  0  0  0  0  0  0  0  0  0  0
   -2.8579   -2.4750    0.0000 C   0  0  0  0  0  0  0  0  0  0  0  0
   -2.8579   -1.6500    0.0000 C   0  0  0  0  0  0  0  0  0  0  0  0
   -2.1434   -1.2375    0.0000 C   0  0  0  0  0  0  0  0  0  0  0  0
   -1.4289   -1.6500    0.0000 C   0  0  0  0  0  0  0  0  0  0  0  0
   -3.5724   -1.2375    0.0000 C   0  0  0  0  0  0  0  0  0  0  0  0
   -3.1599   -0.5230    0.0000 F   0  0  0  0  0  0  0  0  0  0  0  0
   -3.9849   -1.9520    0.0000 F   0  0  0  0  0  0  0  0  0  0  0  0
   -4.2868   -0.8250    0.0000 C   0  0  0  0  0  0  0  0  0  0  0  0
   -5.0013   -0.4125    0.0000 F   0  0  0  0  0  0  0  0  0  0  0  0
   -3.8743   -0.1105    0.0000 F   0  0  0  0  0  0  0  0  0  0  0  0
   -4.6993   -1.5395    0.0000 F   0  0  0  0  0  0  0  0  0  0  0  0
  1  2  1  0  0  0  0
  2  3  2  0  0  0  0
  2  4  1  0  0  0  0
  4  5  2  0  0  0  0
  5  6  1  0  0  0  0
  6  7  1  0  0  0  0
  6  8  2  0  0  0  0
  8  9  1  0  0  0  0
  9 10  2  0  0  0  0
  4 10  1  0  0  0  0
 10 11  1  0  0  0  0
 11 12  1  0  0  0  0
 12 13  2  0  0  0  0
 12 14  1  0  0  0  0
 14 15  2  0  0  0  0
 15 16  1  0  0  0  0
 16 17  2  0  0  0  0
 17 18  1  0  0  0  0
 18 19  2  0  0  0  0
 14 19  1  0  0  0  0
 17 20  1  0  0  0  0
 20 21  1  0  0  0  0
 20 22  1  0  0  0  0
 20 23  1  0  0  0  0
 23 24  1  0  0  0  0
 23 25  1  0  0  0  0
 23 26  1  0  0  0  0
M  END
> <ID>
CPD_3877

$$$$
CPD_3882
  Mrv1822 09091914012D          

 27 28  0  0  0  0            999 V2000
   -0.7145   -1.2375    0.0000 C   0  0  0  0  0  0  0  0  0  0  0  0
    0.0000   -1.6500    0.0000 O   0  0  0  0  0  0  0  0  0  0  0  0
    0.0000   -2.4750    0.0000 C   0  0  0  0  0  0  0  0  0  0  0  0
    0.7145   -2.8875    0.0000 C   0  0  0  0  0  0  0  0  0  0  0  0
    1.4289   -2.4750    0.0000 O   0  0  0  0  0  0  0  0  0  0  0  0
    2.1434   -2.8875    0.0000 C   0  0  0  0  0  0  0  0  0  0  0  0
    2.1434   -3.7125    0.0000 O   0  0  0  0  0  0  0  0  0  0  0  0
    2.8579   -2.4750    0.0000 C   0  0  0  0  0  0  0  0  0  0  0  0
    2.8579   -1.6500    0.0000 C   0  0  0  0  0  0  0  0  0  0  0  0
    3.5724   -1.2375    0.0000 C   0  0  0  0  0  0  0  0  0  0  0  0
    4.2868   -1.6500    0.0000 C   0  0  0  0  0  0  0  0  0  0  0  0
    4.2868   -2.4750    0.0000 C   0  0  0  0  0  0  0  0  0  0  0  0
    3.5724   -2.8875    0.0000 C   0  0  0  0  0  0  0  0  0  0  0  0
    5.0013   -1.2375    0.0000 C   0  0  0  0  0  0  0  0  0  0  0  0
    4.5888   -0.5230    0.0000 F   0  0  0  0  0  0  0  0  0  0  0  0
    5.4138   -1.9520    0.0000 F   0  0  0  0  0  0  0  0  0  0  0  0
    5.7158   -0.8250    0.0000 C   0  0  0  0  0  0  0  0  0  0  0  0
    6.4302   -0.4125    0.0000 F   0  0  0  0  0  0  0  0  0  0  0  0
    5.3033   -0.1105    0.0000 F   0  0  0  0  0  0  0  0  0  0  0  0
    6.1283   -1.5395    0.0000 F   0  0  0  0  0  0  0  0  0  0  0  0
    0.7145   -3.7125    0.0000 C   0  0  0  0  0  0  0  0  0  0  0  0
    0.0000   -4.1250    0.0000 C   0  0  0  0  0  0  0  0  0  0  0  0
   -0.7145   -3.7125    0.0000 C   0  0  0  0  0  0  0  0  0  0  0  0
   -0.7145   -2.8875    0.0000 C   0  0  0  0  0  0  0  0  0  0  0  0
   -1.4289   -4.1250    0.0000 C   0  0  0  0  0  0  0  0  0  0  0  0
   -1.4289   -4.9500    0.0000 C   0  0  0  0  0  0  0  0  0  0  0  0
   -2.1434   -3.7125    0.0000 O   0  0  0  0  0  0  0  0  0  0  0  0
  1  2  1  0  0  0  0
  2  3  1  0  0  0  0
  3  4  2  0  0  0  0
  4  5  1  0  0  0  0
  5  6  1  0  0  0  0
  6  7  2  0  0  0  0
  6  8  1  0  0  0  0
  8  9  2  0  0  0  0
  9 10  1  0  0  0  0
 10 11  2  0  0  0  0
 11 12  1  0  0  0  0
 12 13  2  0  0  0  0
  8 13  1  0  0  0  0
 11 14  1  0  0  0  0
 14 15  1  0  0  0  0
 14 16  1  0  0  0  0
 14 17  1  0  0  0  0
 17 18  1  0  0  0  0
 17 19  1  0  0  0  0
 17 20  1  0  0  0  0
  4 21  1  0  0  0  0
 21 22  2  0  0  0  0
 22 23  1  0  0  0  0
 23 24  2  0  0  0  0
  3 24  1  0  0  0  0
 23 25  1  0  0  0  0
 25 26  1  0  0  0  0
 25 27  2  0  0  0  0
M  END
> <ID>
CPD_3882

$$$$
CPD_3887
  Mrv1822 09091914012D          

 23 26  0  0  0  0            999 V2000
   -0.0933    6.6957    0.0000 Cl  0  0  0  0  0  0  0  0  0  0  0  0
    0.2423    5.9420    0.0000 C   0  0  0  0  0  0  0  0  0  0  0  0
    1.0493    5.7705    0.0000 C   0  0  0  0  0  0  0  0  0  0  0  0
    1.1355    4.9500    0.0000 C   0  0  0  0  0  0  0  0  0  0  0  0
    1.8500    4.5375    0.0000 C   0  0  0  0  0  0  0  0  0  0  0  0
    1.8500    3.7125    0.0000 O   0  0  0  0  0  0  0  0  0  0  0  0
    2.5645    3.3000    0.0000 C   0  0  0  0  0  0  0  0  0  0  0  0
    3.2789    3.7125    0.0000 C   0  0  0  0  0  0  0  0  0  0  0  0
    3.9934    3.3000    0.0000 C   0  0  0  0  0  0  0  0  0  0  0  0
    3.9934    2.4750    0.0000 C   0  0  0  0  0  0  0  0  0  0  0  0
    3.2789    2.0625    0.0000 N   0  0  0  0  0  0  0  0  0  0  0  0
    2.5645    2.4750    0.0000 C   0  0  0  0  0  0  0  0  0  0  0  0
    3.2789    1.2375    0.0000 C   0  0  0  0  0  0  0  0  0  0  0  0
    3.9934    0.8250    0.0000 N   0  0  0  0  0  0  0  0  0  0  0  0
    3.9934    0.0000    0.0000 C   0  0  0  0  0  0  0  0  0  0  0  0
    3.2789   -0.4125    0.0000 N   0  0  0  0  0  0  0  0  0  0  0  0
    2.5645    0.0000    0.0000 C   0  0  0  0  0  0  0  0  0  0  0  0
    2.5645    0.8250    0.0000 C   0  0  0  0  0  0  0  0  0  0  0  0
    1.7798    1.0799    0.0000 N   0  0  0  0  0  0  0  0  0  0  0  0
    1.2949    0.4125    0.0000 C   0  0  0  0  0  0  0  0  0  0  0  0
    1.7798   -0.2549    0.0000 N   0  0  0  0  0  0  0  0  0  0  0  0
    0.3818    4.6144    0.0000 C   0  0  0  0  0  0  0  0  0  0  0  0
   -0.1702    5.2275    0.0000 S   0  0  0  0  0  0  0  0  0  0  0  0
  1  2  1  0  0  0  0
  2  3  2  0  0  0  0
  3  4  1  0  0  0  0
  4  5  1  0  0  0  0
  5  6  1  0  0  0  0
  6  7  1  0  0  0  0
  7  8  1  0  0  0  0
  8  9  1  0  0  0  0
  9 10  1  0  0  0  0
 10 11  1  0  0  0  0
 11 12  1  0  0  0  0
  7 12  1  0  0  0  0
 11 13  1  0  0  0  0
 13 14  2  0  0  0  0
 14 15  1  0  0  0  0
 15 16  2  0  0  0  0
 16 17  1  0  0  0  0
 17 18  2  0  0  0  0
 13 18  1  0  0  0  0
 18 19  1  0  0  0  0
 19 20  2  0  0  0  0
 20 21  1  0  0  0  0
 17 21  1  0  0  0  0
  4 22  2  0  0  0  0
 22 23  1  0  0  0  0
  2 23  1  0  0  0  0
M  END
> <ID>
CPD_3887

$$$$
CPD_3892
  Mrv1822 09091914012D          

 25 26  0  0  0  0            999 V2000
   -3.4656    6.0027    0.0000 C   0  0  0  0  0  0  0  0  0  0  0  0
   -4.1801    5.5902    0.0000 C   0  0  0  0  0  0  0  0  0  0  0  0
   -4.1801    4.7652    0.0000 O   0  0  0  0  0  0  0  0  0  0  0  0
   -4.8946    4.3527    0.0000 C   0  0  0  0  0  0  0  0  0  0  0  0
   -4.8946    3.5277    0.0000 C   0  0  0  0  0  0  0  0  0  0  0  0
   -5.6091    3.1152    0.0000 C   0  0  0  0  0  0  0  0  0  0  0  0
   -6.3235    3.5277    0.0000 C   0  0  0  0  0  0  0  0  0  0  0  0
   -6.3235    4.3527    0.0000 C   0  0  0  0  0  0  0  0  0  0  0  0
   -5.6091    4.7652    0.0000 C   0  0  0  0  0  0  0  0  0  0  0  0
   -4.1801    3.1152    0.0000 N   0  0  0  0  0  0  0  0  0  0  0  0
   -4.1801    2.2902    0.0000 C   0  0  0  0  0  0  0  0  0  0  0  0
   -3.4656    1.8777    0.0000 C   0  0  0  0  0  0  0  0  0  0  0  0
   -2.7512    2.2902    0.0000 O   0  0  0  0  0  0  0  0  0  0  0  0
   -3.4656    1.0527    0.0000 C   0  0  0  0  0  0  0  0  0  0  0  0
   -2.7982    0.5678    0.0000 C   0  0  0  0  0  0  0  0  0  0  0  0
   -2.0136    0.8227    0.0000 C   0  0  0  0  0  0  0  0  0  0  0  0
   -1.4005    0.2707    0.0000 O   0  0  0  0  0  0  0  0  0  0  0  0
   -3.0531   -0.2169    0.0000 C   0  0  0  0  0  0  0  0  0  0  0  0
   -3.8781   -0.2169    0.0000 C   0  0  0  0  0  0  0  0  0  0  0  0
   -4.3631   -0.8843    0.0000 Cl  0  0  0  0  0  0  0  0  0  0  0  0
   -4.1331    0.5678    0.0000 S   0  0  0  0  0  0  0  0  0  0  0  0
   -3.4656    3.5277    0.0000 S   0  0  0  0  0  0  0  0  0  0  0  0
   -2.7512    3.9402    0.0000 C   0  0  0  0  0  0  0  0  0  0  0  0
   -3.0531    2.8132    0.0000 O   0  0  0  0  0  0  0  0  0  0  0  0
   -3.8781    4.2422    0.0000 O   0  0  0  0  0  0  0  0  0  0  0  0
  1  2  1  0  0  0  0
  2  3  1  0  0  0  0
  3  4  1  0  0  0  0
  4  5  2  0  0  0  0
  5  6  1  0  0  0  0
  6  7  2  0  0  0  0
  7  8  1  0  0  0  0
  8  9  2  0  0  0  0
  4  9  1  0  0  0  0
  5 10  1  0  0  0  0
 10 11  1  0  0  0  0
 11 12  1  0  0  0  0
 12 13  2  0  0  0  0
 12 14  1  0  0  0  0
 14 15  2  0  0  0  0
 15 16  1  0  0  0  0
 16 17  1  0  0  0  0
 15 18  1  0  0  0  0
 18 19  2  0  0  0  0
 19 20  1  0  0  0  0
 19 21  1  0  0  0  0
 14 21  1  0  0  0  0
 10 22  1  0  0  0  0
 22 23  1  0  0  0  0
 22 24  2  0  0  0  0
 22 25  2  0  0  0  0
M  END
> <ID>
CPD_3892

$$$$
CPD_3897
  Mrv1822 09091914012D          

 24 25  0  0  0  0            999 V2000
    0.7145   -1.2375    0.0000 C   0  0  0  0  0  0  0  0  0  0  0  0
    0.7145   -0.4125    0.0000 C   0  0  0  0  0  0  0  0  0  0  0  0
    0.0000    0.0000    0.0000 C   0  0  0  0  0  0  0  0  0  0  0  0
    0.0000    0.8250    0.0000 C   0  0  0  0  0  0  0  0  0  0  0  0
    0.7145    1.2375    0.0000 C   0  0  0  0  0  0  0  0  0  0  0  0
    1.4289    0.8250    0.0000 C   0  0  0  0  0  0  0  0  0  0  0  0
    2.1434    1.2375    0.0000 C   0  0  0  0  0  0  0  0  0  0  0  0
    1.4289    0.0000    0.0000 C   0  0  0  0  0  0  0  0  0  0  0  0
    2.1434   -0.4125    0.0000 N   0  0  0  0  0  0  0  0  0  0  0  0
    2.1434   -1.2375    0.0000 C   0  0  0  0  0  0  0  0  0  0  0  0
    2.8579   -1.6500    0.0000 C   0  0  0  0  0  0  0  0  0  0  0  0
    3.5724   -1.2375    0.0000 O   0  0  0  0  0  0  0  0  0  0  0  0
    2.8579   -2.4750    0.0000 C   0  0  0  0  0  0  0  0  0  0  0  0
    3.5253   -2.9599    0.0000 C   0  0  0  0  0  0  0  0  0  0  0  0
    4.3099   -2.7050    0.0000 C   0  0  0  0  0  0  0  0  0  0  0  0
    4.4815   -1.8980    0.0000 O   0  0  0  0  0  0  0  0  0  0  0  0
    3.2704   -3.7445    0.0000 C   0  0  0  0  0  0  0  0  0  0  0  0
    2.4454   -3.7445    0.0000 C   0  0  0  0  0  0  0  0  0  0  0  0
    1.9605   -4.4120    0.0000 Cl  0  0  0  0  0  0  0  0  0  0  0  0
    2.1904   -2.9599    0.0000 S   0  0  0  0  0  0  0  0  0  0  0  0
    2.8579    0.0000    0.0000 S   0  0  0  0  0  0  0  0  0  0  0  0
    3.5724    0.4125    0.0000 C   0  0  0  0  0  0  0  0  0  0  0  0
    3.2704   -0.7145    0.0000 O   0  0  0  0  0  0  0  0  0  0  0  0
    2.4454    0.7145    0.0000 O   0  0  0  0  0  0  0  0  0  0  0  0
  1  2  1  0  0  0  0
  2  3  2  0  0  0  0
  3  4  1  0  0  0  0
  4  5  2  0  0  0  0
  5  6  1  0  0  0  0
  6  7  1  0  0  0  0
  6  8  2  0  0  0  0
  2  8  1  0  0  0  0
  8  9  1  0  0  0  0
  9 10  1  0  0  0  0
 10 11  1  0  0  0  0
 11 12  2  0  0  0  0
 11 13  1  0  0  0  0
 13 14  2  0  0  0  0
 14 15  1  0  0  0  0
 15 16  1  0  0  0  0
 14 17  1  0  0  0  0
 17 18  2  0  0  0  0
 18 19  1  0  0  0  0
 18 20  1  0  0  0  0
 13 20  1  0  0  0  0
  9 21  1  0  0  0  0
 21 22  1  0  0  0  0
 21 23  2  0  0  0  0
 21 24  2  0  0  0  0
M  END
> <ID>
CPD_3897

$$$$
CPD_3902
  Mrv1822 09091914012D          

 24 26  0  0  0  0            999 V2000
    5.4957    2.3479    0.0000 C   0  0  0  0  0  0  0  0  0  0  0  0
    4.7812    1.9354    0.0000 O   0  0  0  0  0  0  0  0  0  0  0  0
    4.0668    2.3479    0.0000 C   0  0  0  0  0  0  0  0  0  0  0  0
    4.0668    3.1729    0.0000 O   0  0  0  0  0  0  0  0  0  0  0  0
    3.3523    1.9354    0.0000 C   0  0  0  0  0  0  0  0  0  0  0  0
    3.3523    1.1104    0.0000 C   0  0  0  0  0  0  0  0  0  0  0  0
    2.6378    0.6979    0.0000 C   0  0  0  0  0  0  0  0  0  0  0  0
    1.9233    1.1104    0.0000 C   0  0  0  0  0  0  0  0  0  0  0  0
    1.1387    0.8555    0.0000 N   0  0  0  0  0  0  0  0  0  0  0  0
    0.6538    1.5229    0.0000 C   0  0  0  0  0  0  0  0  0  0  0  0
   -0.1712    1.5229    0.0000 N   0  0  0  0  0  0  0  0  0  0  0  0
    1.1387    2.1904    0.0000 C   0  0  0  0  0  0  0  0  0  0  0  0
    0.8838    2.9750    0.0000 C   0  0  0  0  0  0  0  0  0  0  0  0
    0.0768    3.1465    0.0000 O   0  0  0  0  0  0  0  0  0  0  0  0
    1.4358    3.5881    0.0000 C   0  0  0  0  0  0  0  0  0  0  0  0
    1.2643    4.3951    0.0000 C   0  0  0  0  0  0  0  0  0  0  0  0
    0.5106    4.7306    0.0000 C   0  0  0  0  0  0  0  0  0  0  0  0
   -0.1568    4.2457    0.0000 O   0  0  0  0  0  0  0  0  0  0  0  0
    1.9788    4.8076    0.0000 C   0  0  0  0  0  0  0  0  0  0  0  0
    2.5919    4.2555    0.0000 C   0  0  0  0  0  0  0  0  0  0  0  0
    3.3988    4.4271    0.0000 Cl  0  0  0  0  0  0  0  0  0  0  0  0
    2.2563    3.5019    0.0000 S   0  0  0  0  0  0  0  0  0  0  0  0
    1.9233    1.9354    0.0000 C   0  0  0  0  0  0  0  0  0  0  0  0
    2.6378    2.3479    0.0000 C   0  0  0  0  0  0  0  0  0  0  0  0
  1  2  1  0  0  0  0
  2  3  1  0  0  0  0
  3  4  2  0  0  0  0
  3  5  1  0  0  0  0
  5  6  2  0  0  0  0
  6  7  1  0  0  0  0
  7  8  2  0  0  0  0
  8  9  1  0  0  0  0
  9 10  1  0  0  0  0
 10 11  1  0  0  0  0
 10 12  2  0  0  0  0
 12 13  1  0  0  0  0
 13 14  2  0  0  0  0
 13 15  1  0  0  0  0
 15 16  2  0  0  0  0
 16 17  1  0  0  0  0
 17 18  1  0  0  0  0
 16 19  1  0  0  0  0
 19 20  2  0  0  0  0
 20 21  1  0  0  0  0
 20 22  1  0  0  0  0
 15 22  1  0  0  0  0
 12 23  1  0  0  0  0
  8 23  1  0  0  0  0
 23 24  2  0  0  0  0
  5 24  1  0  0  0  0
M  END
> <ID>
CPD_3902

$$$$
CPD_3907
  Mrv1822 09091914012D          

 20 23  0  0  0  0            999 V2000
   -2.0572   -3.5386    0.0000 N   0  0  0  0  0  0  0  0  0  0  0  0
   -2.1435   -2.7181    0.0000 C   0  0  0  0  0  0  0  0  0  0  0  0
   -2.8579   -2.3056    0.0000 N   0  0  0  0  0  0  0  0  0  0  0  0
   -2.6864   -1.4986    0.0000 C   0  0  0  0  0  0  0  0  0  0  0  0
   -3.2384   -0.8856    0.0000 C   0  0  0  0  0  0  0  0  0  0  0  0
   -4.0231   -0.6306    0.0000 C   0  0  0  0  0  0  0  0  0  0  0  0
   -3.4100   -0.0786    0.0000 C   0  0  0  0  0  0  0  0  0  0  0  0
   -1.8659   -1.4124    0.0000 C   0  0  0  0  0  0  0  0  0  0  0  0
   -1.5304   -2.1661    0.0000 S   0  0  0  0  0  0  0  0  0  0  0  0
   -1.4534   -0.6979    0.0000 C   0  0  0  0  0  0  0  0  0  0  0  0
   -1.8659    0.0165    0.0000 O   0  0  0  0  0  0  0  0  0  0  0  0
   -0.6284   -0.6979    0.0000 C   0  0  0  0  0  0  0  0  0  0  0  0
   -0.1435   -1.3654    0.0000 C   0  0  0  0  0  0  0  0  0  0  0  0
    0.6411   -1.1104    0.0000 C   0  0  0  0  0  0  0  0  0  0  0  0
    0.6411   -0.2854    0.0000 C   0  0  0  0  0  0  0  0  0  0  0  0
    1.3556    0.1271    0.0000 C   0  0  0  0  0  0  0  0  0  0  0  0
    2.0701   -0.2854    0.0000 C   0  0  0  0  0  0  0  0  0  0  0  0
    2.0701   -1.1104    0.0000 C   0  0  0  0  0  0  0  0  0  0  0  0
    1.3556   -1.5229    0.0000 C   0  0  0  0  0  0  0  0  0  0  0  0
   -0.1435   -0.0305    0.0000 S   0  0  0  0  0  0  0  0  0  0  0  0
  1  2  1  0  0  0  0
  2  3  2  0  0  0  0
  3  4  1  0  0  0  0
  4  5  1  0  0  0  0
  5  6  1  0  0  0  0
  6  7  1  0  0  0  0
  5  7  1  0  0  0  0
  4  8  2  0  0  0  0
  8  9  1  0  0  0  0
  2  9  1  0  0  0  0
  8 10  1  0  0  0  0
 10 11  2  0  0  0  0
 10 12  1  0  0  0  0
 12 13  2  0  0  0  0
 13 14  1  0  0  0  0
 14 15  2  0  0  0  0
 15 16  1  0  0  0  0
 16 17  1  0  0  0  0
 17 18  1  0  0  0  0
 18 19  1  0  0  0  0
 14 19  1  0  0  0  0
 15 20  1  0  0  0  0
 12 20  1  0  0  0  0
M  END
> <ID>
CPD_3907

$$$$
CPD_3912
  Mrv1822 09091914012D          

 20 23  0  0  0  0            999 V2000
    2.7845   -0.1271    0.0000 O   0  0  0  0  0  0  0  0  0  0  0  0
    2.7845    0.6979    0.0000 C   0  0  0  0  0  0  0  0  0  0  0  0
    3.4990    1.1104    0.0000 C   0  0  0  0  0  0  0  0  0  0  0  0
    4.2527    0.7749    0.0000 C   0  0  0  0  0  0  0  0  0  0  0  0
    4.8047    1.3880    0.0000 C   0  0  0  0  0  0  0  0  0  0  0  0
    4.3922    2.1025    0.0000 C   0  0  0  0  0  0  0  0  0  0  0  0
    4.8047    2.8169    0.0000 C   0  0  0  0  0  0  0  0  0  0  0  0
    5.6297    2.8169    0.0000 C   0  0  0  0  0  0  0  0  0  0  0  0
    6.0422    2.1025    0.0000 C   0  0  0  0  0  0  0  0  0  0  0  0
    5.6297    1.3880    0.0000 C   0  0  0  0  0  0  0  0  0  0  0  0
    3.5852    1.9309    0.0000 S   0  0  0  0  0  0  0  0  0  0  0  0
    2.0701    1.1104    0.0000 C   0  0  0  0  0  0  0  0  0  0  0  0
    1.3556    0.6979    0.0000 C   0  0  0  0  0  0  0  0  0  0  0  0
    0.6411    1.1104    0.0000 C   0  0  0  0  0  0  0  0  0  0  0  0
    0.6411    1.9354    0.0000 C   0  0  0  0  0  0  0  0  0  0  0  0
   -0.1435    2.1904    0.0000 S   0  0  0  0  0  0  0  0  0  0  0  0
   -0.6284    1.5229    0.0000 C   0  0  0  0  0  0  0  0  0  0  0  0
   -0.1435    0.8555    0.0000 C   0  0  0  0  0  0  0  0  0  0  0  0
    1.3556    2.3479    0.0000 C   0  0  0  0  0  0  0  0  0  0  0  0
    2.0701    1.9354    0.0000 C   0  0  0  0  0  0  0  0  0  0  0  0
  1  2  2  0  0  0  0
  2  3  1  0  0  0  0
  3  4  2  0  0  0  0
  4  5  1  0  0  0  0
  5  6  2  0  0  0  0
  6  7  1  0  0  0  0
  7  8  1  0  0  0  0
  8  9  1  0  0  0  0
  9 10  1  0  0  0  0
  5 10  1  0  0  0  0
  6 11  1  0  0  0  0
  3 11  1  0  0  0  0
  2 12  1  0  0  0  0
 12 13  2  0  0  0  0
 13 14  1  0  0  0  0
 14 15  2  0  0  0  0
 15 16  1  0  0  0  0
 16 17  1  0  0  0  0
 17 18  2  0  0  0  0
 14 18  1  0  0  0  0
 15 19  1  0  0  0  0
 19 20  2  0  0  0  0
 12 20  1  0  0  0  0
M  END
> <ID>
CPD_3912

$$$$
CPD_3917
  Mrv1822 09091914012D          

 26 29  0  0  0  0            999 V2000
   -0.6284   -2.1269    0.0000 C   0  0  0  0  0  0  0  0  0  0  0  0
   -1.4534   -2.1269    0.0000 C   0  0  0  0  0  0  0  0  0  0  0  0
   -1.8659   -1.4124    0.0000 C   0  0  0  0  0  0  0  0  0  0  0  0
   -2.6909   -1.4124    0.0000 C   0  0  0  0  0  0  0  0  0  0  0  0
   -3.1034   -2.1269    0.0000 N   0  0  0  0  0  0  0  0  0  0  0  0
   -2.6909   -2.8414    0.0000 C   0  0  0  0  0  0  0  0  0  0  0  0
   -3.1034   -3.5558    0.0000 O   0  0  0  0  0  0  0  0  0  0  0  0
   -1.8659   -2.8414    0.0000 N   0  0  0  0  0  0  0  0  0  0  0  0
   -3.1034   -0.6979    0.0000 C   0  0  0  0  0  0  0  0  0  0  0  0
   -3.9284   -0.6979    0.0000 C   0  0  0  0  0  0  0  0  0  0  0  0
   -4.3409    0.0165    0.0000 C   0  0  0  0  0  0  0  0  0  0  0  0
   -3.9284    0.7310    0.0000 C   0  0  0  0  0  0  0  0  0  0  0  0
   -4.3409    1.4455    0.0000 Cl  0  0  0  0  0  0  0  0  0  0  0  0
   -3.1034    0.7310    0.0000 C   0  0  0  0  0  0  0  0  0  0  0  0
   -2.6909    0.0165    0.0000 C   0  0  0  0  0  0  0  0  0  0  0  0
   -1.4534   -0.6979    0.0000 C   0  0  0  0  0  0  0  0  0  0  0  0
   -1.8659    0.0165    0.0000 O   0  0  0  0  0  0  0  0  0  0  0  0
   -0.6284   -0.6979    0.0000 C   0  0  0  0  0  0  0  0  0  0  0  0
   -0.1435   -1.3654    0.0000 C   0  0  0  0  0  0  0  0  0  0  0  0
    0.6411   -1.1104    0.0000 C   0  0  0  0  0  0  0  0  0  0  0  0
    0.6411   -0.2854    0.0000 C   0  0  0  0  0  0  0  0  0  0  0  0
    1.3556    0.1271    0.0000 C   0  0  0  0  0  0  0  0  0  0  0  0
    2.0701   -0.2854    0.0000 C   0  0  0  0  0  0  0  0  0  0  0  0
    2.0701   -1.1104    0.0000 C   0  0  0  0  0  0  0  0  0  0  0  0
    1.3556   -1.5229    0.0000 C   0  0  0  0  0  0  0  0  0  0  0  0
   -0.1435   -0.0305    0.0000 S   0  0  0  0  0  0  0  0  0  0  0  0
  1  2  1  0  0  0  0
  2  3  2  0  0  0  0
  3  4  1  0  0  0  0
  4  5  1  0  0  0  0
  5  6  1  0  0  0  0
  6  7  2  0  0  0  0
  6  8  1  0  0  0  0
  2  8  1  0  0  0  0
  4  9  1  0  0  0  0
  9 10  2  0  0  0  0
 10 11  1  0  0  0  0
 11 12  2  0  0  0  0
 12 13  1  0  0  0  0
 12 14  1  0  0  0  0
 14 15  2  0  0  0  0
  9 15  1  0  0  0  0
  3 16  1  0  0  0  0
 16 17  2  0  0  0  0
 16 18  1  0  0  0  0
 18 19  2  0  0  0  0
 19 20  1  0  0  0  0
 20 21  2  0  0  0  0
 21 22  1  0  0  0  0
 22 23  1  0  0  0  0
 23 24  1  0  0  0  0
 24 25  1  0  0  0  0
 20 25  1  0  0  0  0
 21 26  1  0  0  0  0
 18 26  1  0  0  0  0
M  END
> <ID>
CPD_3917

$$$$
CPD_3922
  Mrv1822 09091914012D          

 25 27  0  0  0  0            999 V2000
    2.2849   -4.7739    0.0000 C   0  0  0  0  0  0  0  0  0  0  0  0
    1.7329   -4.1608    0.0000 C   0  0  0  0  0  0  0  0  0  0  0  0
    2.3460   -3.6088    0.0000 C   0  0  0  0  0  0  0  0  0  0  0  0
    1.1198   -4.7128    0.0000 C   0  0  0  0  0  0  0  0  0  0  0  0
    1.1809   -3.5477    0.0000 O   0  0  0  0  0  0  0  0  0  0  0  0
    1.4358   -2.7631    0.0000 C   0  0  0  0  0  0  0  0  0  0  0  0
    2.2428   -2.5916    0.0000 O   0  0  0  0  0  0  0  0  0  0  0  0
    0.8838   -2.1500    0.0000 N   0  0  0  0  0  0  0  0  0  0  0  0
    1.1387   -1.3654    0.0000 C   0  0  0  0  0  0  0  0  0  0  0  0
    0.6538   -0.6979    0.0000 C   0  0  0  0  0  0  0  0  0  0  0  0
    1.1387   -0.0305    0.0000 N   0  0  0  0  0  0  0  0  0  0  0  0
    1.9233   -0.2854    0.0000 C   0  0  0  0  0  0  0  0  0  0  0  0
    2.6378    0.1271    0.0000 C   0  0  0  0  0  0  0  0  0  0  0  0
    3.3523   -0.2854    0.0000 C   0  0  0  0  0  0  0  0  0  0  0  0
    3.3523   -1.1104    0.0000 C   0  0  0  0  0  0  0  0  0  0  0  0
    2.6378   -1.5229    0.0000 C   0  0  0  0  0  0  0  0  0  0  0  0
    1.9233   -1.1104    0.0000 C   0  0  0  0  0  0  0  0  0  0  0  0
   -0.1712   -0.6979    0.0000 C   0  0  0  0  0  0  0  0  0  0  0  0
   -0.5837   -1.4124    0.0000 O   0  0  0  0  0  0  0  0  0  0  0  0
   -0.5837    0.0165    0.0000 C   0  0  0  0  0  0  0  0  0  0  0  0
   -1.4087    0.0165    0.0000 N   0  0  0  0  0  0  0  0  0  0  0  0
   -1.8212    0.7310    0.0000 N   0  0  0  0  0  0  0  0  0  0  0  0
   -1.4087    1.4455    0.0000 C   0  0  0  0  0  0  0  0  0  0  0  0
   -0.5837    1.4455    0.0000 C   0  0  0  0  0  0  0  0  0  0  0  0
   -0.1712    0.7310    0.0000 C   0  0  0  0  0  0  0  0  0  0  0  0
  1  2  1  0  0  0  0
  2  3  1  0  0  0  0
  2  4  1  0  0  0  0
  2  5  1  0  0  0  0
  5  6  1  0  0  0  0
  6  7  2  0  0  0  0
  6  8  1  0  0  0  0
  8  9  1  0  0  0  0
  9 10  2  0  0  0  0
 10 11  1  0  0  0  0
 11 12  1  0  0  0  0
 12 13  2  0  0  0  0
 13 14  1  0  0  0  0
 14 15  2  0  0  0  0
 15 16  1  0  0  0  0
 16 17  2  0  0  0  0
  9 17  1  0  0  0  0
 12 17  1  0  0  0  0
 10 18  1  0  0  0  0
 18 19  2  0  0  0  0
 18 20  1  0  0  0  0
 20 21  2  0  0  0  0
 21 22  1  0  0  0  0
 22 23  2  0  0  0  0
 23 24  1  0  0  0  0
 24 25  2  0  0  0  0
 20 25  1  0  0  0  0
M  END
> <ID>
CPD_3922

$$$$
CPD_3927
  Mrv1822 09091914012D          

 28 30  0  0  1  0            999 V2000
   -1.5117   -0.3679    0.0000 H   0  0  0  0  0  0  0  0  0  0  0  0
   -1.2982    0.4290    0.0000 C   0  0  2  0  0  0  0  0  0  0  0  0
   -0.5837    0.8415    0.0000 C   0  0  0  0  0  0  0  0  0  0  0  0
   -0.5837    0.0165    0.0000 C   0  0  2  0  0  0  0  0  0  0  0  0
   -0.1712   -0.6979    0.0000 C   0  0  0  0  0  0  0  0  0  0  0  0
   -0.5837   -1.4124    0.0000 O   0  0  0  0  0  0  0  0  0  0  0  0
    0.6538   -0.6979    0.0000 C   0  0  0  0  0  0  0  0  0  0  0  0
    1.1387   -0.0305    0.0000 C   0  0  0  0  0  0  0  0  0  0  0  0
    0.8838    0.7541    0.0000 N   0  0  0  0  0  0  0  0  0  0  0  0
    1.4358    1.3672    0.0000 C   0  0  0  0  0  0  0  0  0  0  0  0
    2.2428    1.1957    0.0000 O   0  0  0  0  0  0  0  0  0  0  0  0
    1.1809    2.1518    0.0000 O   0  0  0  0  0  0  0  0  0  0  0  0
    1.7329    2.7649    0.0000 C   0  0  0  0  0  0  0  0  0  0  0  0
    2.2849    3.3780    0.0000 C   0  0  0  0  0  0  0  0  0  0  0  0
    1.1198    3.3170    0.0000 C   0  0  0  0  0  0  0  0  0  0  0  0
    2.3460    2.2129    0.0000 C   0  0  0  0  0  0  0  0  0  0  0  0
    1.9233   -0.2854    0.0000 C   0  0  0  0  0  0  0  0  0  0  0  0
    2.6378    0.1271    0.0000 C   0  0  0  0  0  0  0  0  0  0  0  0
    3.3523   -0.2854    0.0000 C   0  0  0  0  0  0  0  0  0  0  0  0
    3.3523   -1.1104    0.0000 C   0  0  0  0  0  0  0  0  0  0  0  0
    2.6378   -1.5229    0.0000 C   0  0  0  0  0  0  0  0  0  0  0  0
    1.9233   -1.1104    0.0000 C   0  0  0  0  0  0  0  0  0  0  0  0
    1.1387   -1.3654    0.0000 N   0  0  0  0  0  0  0  0  0  0  0  0
   -2.1232    0.4290    0.0000 C   0  0  2  0  0  0  0  0  0  0  0  0
   -2.5357   -0.2854    0.0000 N   0  0  0  0  0  0  0  0  0  0  0  0
   -2.5357    1.1435    0.0000 C   0  0  0  0  0  0  0  0  0  0  0  0
   -3.3607    1.1435    0.0000 O   0  0  0  0  0  0  0  0  0  0  0  0
   -2.1232    1.8580    0.0000 O   0  0  0  0  0  0  0  0  0  0  0  0
  2  1  1  1  0  0  0
  2  3  1  0  0  0  0
  4  3  1  0  0  0  0
  2  4  1  0  0  0  0
  4  5  1  6  0  0  0
  5  6  2  0  0  0  0
  5  7  1  0  0  0  0
  7  8  2  0  0  0  0
  8  9  1  0  0  0  0
  9 10  1  0  0  0  0
 10 11  2  0  0  0  0
 10 12  1  0  0  0  0
 12 13  1  0  0  0  0
 13 14  1  0  0  0  0
 13 15  1  0  0  0  0
 13 16  1  0  0  0  0
  8 17  1  0  0  0  0
 17 18  2  0  0  0  0
 18 19  1  0  0  0  0
 19 20  2  0  0  0  0
 20 21  1  0  0  0  0
 21 22  2  0  0  0  0
 17 22  1  0  0  0  0
 22 23  1  0  0  0  0
  7 23  1  0  0  0  0
  2 24  1  6  0  0  0
 24 25  1  6  0  0  0
 24 26  1  0  0  0  0
 26 27  1  0  0  0  0
 26 28  2  0  0  0  0
M  END
> <ID>
CPD_3927

$$$$
CPD_3932
  Mrv1822 09091914012D          

 29 30  0  0  1  0            999 V2000
   -0.7685   -4.1636    0.0000 C   0  0  0  0  0  0  0  0  0  0  0  0
   -0.3560   -3.4491    0.0000 O   0  0  0  0  0  0  0  0  0  0  0  0
    0.4690   -3.4491    0.0000 C   0  0  0  0  0  0  0  0  0  0  0  0
    0.8815   -4.1636    0.0000 O   0  0  0  0  0  0  0  0  0  0  0  0
    0.8815   -2.7346    0.0000 C   0  0  0  0  0  0  0  0  0  0  0  0
    1.7065   -2.7346    0.0000 C   0  0  1  0  0  0  0  0  0  0  0  0
    2.1190   -3.4491    0.0000 C   0  0  0  0  0  0  0  0  0  0  0  0
    2.9440   -3.4491    0.0000 C   0  0  0  0  0  0  0  0  0  0  0  0
    3.3565   -2.7346    0.0000 C   0  0  0  0  0  0  0  0  0  0  0  0
    3.3565   -4.1636    0.0000 C   0  0  0  0  0  0  0  0  0  0  0  0
    2.1190   -2.0202    0.0000 C   0  0  0  0  0  0  0  0  0  0  0  0
    2.9440   -2.0202    0.0000 O   0  0  0  0  0  0  0  0  0  0  0  0
    1.7065   -1.3057    0.0000 C   0  0  0  0  0  0  0  0  0  0  0  0
    0.8860   -1.2195    0.0000 C   0  0  0  0  0  0  0  0  0  0  0  0
    0.3340   -1.8326    0.0000 N   0  0  0  0  0  0  0  0  0  0  0  0
   -0.4730   -1.6610    0.0000 C   0  0  0  0  0  0  0  0  0  0  0  0
   -1.0250   -2.2741    0.0000 O   0  0  0  0  0  0  0  0  0  0  0  0
   -0.7279   -0.8764    0.0000 O   0  0  0  0  0  0  0  0  0  0  0  0
   -1.5349   -0.7049    0.0000 C   0  0  0  0  0  0  0  0  0  0  0  0
   -2.3419   -0.5334    0.0000 C   0  0  0  0  0  0  0  0  0  0  0  0
   -1.3634    0.1021    0.0000 C   0  0  0  0  0  0  0  0  0  0  0  0
   -1.7064   -1.5119    0.0000 C   0  0  0  0  0  0  0  0  0  0  0  0
    0.7145   -0.4125    0.0000 C   0  0  0  0  0  0  0  0  0  0  0  0
    0.0000    0.0000    0.0000 C   0  0  0  0  0  0  0  0  0  0  0  0
    0.0000    0.8250    0.0000 C   0  0  0  0  0  0  0  0  0  0  0  0
    0.7145    1.2375    0.0000 C   0  0  0  0  0  0  0  0  0  0  0  0
    1.4289    0.8250    0.0000 C   0  0  0  0  0  0  0  0  0  0  0  0
    1.4289   -0.0000    0.0000 C   0  0  0  0  0  0  0  0  0  0  0  0
    2.0420   -0.5520    0.0000 N   0  0  0  0  0  0  0  0  0  0  0  0
  1  2  1  0  0  0  0
  2  3  1  0  0  0  0
  3  4  2  0  0  0  0
  3  5  1  0  0  0  0
  6  5  1  6  0  0  0
  6  7  1  0  0  0  0
  7  8  1  0  0  0  0
  8  9  1  0  0  0  0
  8 10  1  0  0  0  0
  6 11  1  0  0  0  0
 11 12  2  0  0  0  0
 11 13  1  0  0  0  0
 13 14  2  0  0  0  0
 14 15  1  0  0  0  0
 15 16  1  0  0  0  0
 16 17  2  0  0  0  0
 16 18  1  0  0  0  0
 18 19  1  0  0  0  0
 19 20  1  0  0  0  0
 19 21  1  0  0  0  0
 19 22  1  0  0  0  0
 14 23  1  0  0  0  0
 23 24  2  0  0  0  0
 24 25  1  0  0  0  0
 25 26  2  0  0  0  0
 26 27  1  0  0  0  0
 27 28  2  0  0  0  0
 23 28  1  0  0  0  0
 28 29  1  0  0  0  0
 13 29  1  0  0  0  0
M  END
> <ID>
CPD_3932

$$$$
CPD_3937
  Mrv1822 09091914012D          

 30 34  0  0  0  0            999 V2000
   -4.0289    0.5888    0.0000 N   0  0  0  0  0  0  0  0  0  0  0  0
   -3.2443    0.3338    0.0000 C   0  0  0  0  0  0  0  0  0  0  0  0
   -2.6312    0.8859    0.0000 C   0  0  0  0  0  0  0  0  0  0  0  0
   -2.7174    1.7063    0.0000 N   0  0  0  0  0  0  0  0  0  0  0  0
   -1.9638    2.0419    0.0000 N   0  0  0  0  0  0  0  0  0  0  0  0
   -1.4117    1.4288    0.0000 C   0  0  0  0  0  0  0  0  0  0  0  0
   -1.8242    0.7143    0.0000 C   0  0  0  0  0  0  0  0  0  0  0  0
   -0.5912    1.5150    0.0000 C   0  0  0  0  0  0  0  0  0  0  0  0
   -0.1787    2.2295    0.0000 C   0  0  0  0  0  0  0  0  0  0  0  0
    0.6282    2.0580    0.0000 C   0  0  0  0  0  0  0  0  0  0  0  0
    0.7145    1.2375    0.0000 C   0  0  0  0  0  0  0  0  0  0  0  0
   -0.0392    0.9019    0.0000 S   0  0  0  0  0  0  0  0  0  0  0  0
    1.4289    0.8250    0.0000 C   0  0  0  0  0  0  0  0  0  0  0  0
    2.1434    1.2375    0.0000 O   0  0  0  0  0  0  0  0  0  0  0  0
    1.4289    0.0000    0.0000 C   0  0  0  0  0  0  0  0  0  0  0  0
    2.1434   -0.4125    0.0000 C   0  0  0  0  0  0  0  0  0  0  0  0
    2.8579    0.0000    0.0000 C   0  0  0  0  0  0  0  0  0  0  0  0
    3.5724   -0.4125    0.0000 C   0  0  0  0  0  0  0  0  0  0  0  0
    3.5724   -1.2375    0.0000 C   0  0  0  0  0  0  0  0  0  0  0  0
    4.2868   -1.6500    0.0000 Br  0  0  0  0  0  0  0  0  0  0  0  0
    2.8579   -1.6500    0.0000 C   0  0  0  0  0  0  0  0  0  0  0  0
    2.1434   -1.2375    0.0000 C   0  0  0  0  0  0  0  0  0  0  0  0
    1.4289   -1.6500    0.0000 N   0  0  0  0  0  0  0  0  0  0  0  0
    0.7145   -1.2375    0.0000 C   0  0  0  0  0  0  0  0  0  0  0  0
    0.7145   -0.4125    0.0000 C   0  0  0  0  0  0  0  0  0  0  0  0
    0.0000   -1.6500    0.0000 C   0  0  0  0  0  0  0  0  0  0  0  0
   -0.0862   -2.4705    0.0000 C   0  0  0  0  0  0  0  0  0  0  0  0
   -0.8932   -2.6420    0.0000 C   0  0  0  0  0  0  0  0  0  0  0  0
   -1.3057   -1.9275    0.0000 C   0  0  0  0  0  0  0  0  0  0  0  0
   -0.7537   -1.3144    0.0000 O   0  0  0  0  0  0  0  0  0  0  0  0
  1  2  1  0  0  0  0
  2  3  1  0  0  0  0
  3  4  2  0  0  0  0
  4  5  1  0  0  0  0
  5  6  1  0  0  0  0
  6  7  2  0  0  0  0
  3  7  1  0  0  0  0
  6  8  1  0  0  0  0
  8  9  2  0  0  0  0
  9 10  1  0  0  0  0
 10 11  2  0  0  0  0
 11 12  1  0  0  0  0
  8 12  1  0  0  0  0
 11 13  1  0  0  0  0
 13 14  2  0  0  0  0
 13 15  1  0  0  0  0
 15 16  2  0  0  0  0
 16 17  1  0  0  0  0
 17 18  2  0  0  0  0
 18 19  1  0  0  0  0
 19 20  1  0  0  0  0
 19 21  2  0  0  0  0
 21 22  1  0  0  0  0
 16 22  1  0  0  0  0
 22 23  2  0  0  0  0
 23 24  1  0  0  0  0
 24 25  2  0  0  0  0
 15 25  1  0  0  0  0
 24 26  1  0  0  0  0
 26 27  2  0  0  0  0
 27 28  1  0  0  0  0
 28 29  2  0  0  0  0
 29 30  1  0  0  0  0
 26 30  1  0  0  0  0
M  END
> <ID>
CPD_3937

$$$$
CPD_3942
  Mrv1822 09091914012D          

 23 25  0  0  0  0            999 V2000
    1.6176   -2.1836    0.0000 C   0  0  0  0  0  0  0  0  0  0  0  0
    2.3320   -2.5961    0.0000 C   0  0  0  0  0  0  0  0  0  0  0  0
    3.0465   -2.1836    0.0000 C   0  0  0  0  0  0  0  0  0  0  0  0
    2.3320   -3.4211    0.0000 C   0  0  0  0  0  0  0  0  0  0  0  0
    2.9995   -3.9060    0.0000 C   0  0  0  0  0  0  0  0  0  0  0  0
    2.7445   -4.6906    0.0000 C   0  0  0  0  0  0  0  0  0  0  0  0
    3.2295   -5.3580    0.0000 C   0  0  0  0  0  0  0  0  0  0  0  0
    2.8939   -6.1117    0.0000 O   0  0  0  0  0  0  0  0  0  0  0  0
    4.0499   -5.2718    0.0000 C   0  0  0  0  0  0  0  0  0  0  0  0
    4.4624   -4.5573    0.0000 C   0  0  0  0  0  0  0  0  0  0  0  0
    5.2694   -4.7289    0.0000 C   0  0  0  0  0  0  0  0  0  0  0  0
    5.3556   -5.5493    0.0000 C   0  0  0  0  0  0  0  0  0  0  0  0
    4.6020   -5.8849    0.0000 S   0  0  0  0  0  0  0  0  0  0  0  0
    6.0701   -5.9618    0.0000 C   0  0  0  0  0  0  0  0  0  0  0  0
    6.8238   -5.6263    0.0000 C   0  0  0  0  0  0  0  0  0  0  0  0
    7.3758   -6.2394    0.0000 C   0  0  0  0  0  0  0  0  0  0  0  0
    8.1963   -6.1531    0.0000 C   0  0  0  0  0  0  0  0  0  0  0  0
    8.5319   -5.3995    0.0000 N   0  0  0  0  0  0  0  0  0  0  0  0
    6.9633   -6.9539    0.0000 N   0  0  0  0  0  0  0  0  0  0  0  0
    6.1563   -6.7823    0.0000 N   0  0  0  0  0  0  0  0  0  0  0  0
    1.9195   -4.6906    0.0000 C   0  0  0  0  0  0  0  0  0  0  0  0
    1.4346   -5.3580    0.0000 N   0  0  0  0  0  0  0  0  0  0  0  0
    1.6646   -3.9060    0.0000 S   0  0  0  0  0  0  0  0  0  0  0  0
  1  2  1  0  0  0  0
  2  3  1  0  0  0  0
  2  4  1  0  0  0  0
  4  5  2  0  0  0  0
  5  6  1  0  0  0  0
  6  7  1  0  0  0  0
  7  8  2  0  0  0  0
  7  9  1  0  0  0  0
  9 10  2  0  0  0  0
 10 11  1  0  0  0  0
 11 12  2  0  0  0  0
 12 13  1  0  0  0  0
  9 13  1  0  0  0  0
 12 14  1  0  0  0  0
 14 15  2  0  0  0  0
 15 16  1  0  0  0  0
 16 17  1  0  0  0  0
 17 18  1  0  0  0  0
 16 19  2  0  0  0  0
 19 20  1  0  0  0  0
 14 20  1  0  0  0  0
  6 21  2  0  0  0  0
 21 22  1  0  0  0  0
 21 23  1  0  0  0  0
  4 23  1  0  0  0  0
M  END
> <ID>
CPD_3942

$$$$
CPD_3947
  Mrv1822 09091914012D          

 27 30  0  0  0  0            999 V2000
   -4.3409   -5.6992    0.0000 C   0  0  0  0  0  0  0  0  0  0  0  0
   -3.9284   -4.9848    0.0000 N   0  0  0  0  0  0  0  0  0  0  0  0
   -4.3409   -4.2703    0.0000 C   0  0  0  0  0  0  0  0  0  0  0  0
   -3.9284   -3.5558    0.0000 C   0  0  0  0  0  0  0  0  0  0  0  0
   -3.1034   -3.5558    0.0000 N   0  0  0  0  0  0  0  0  0  0  0  0
   -2.6909   -4.2703    0.0000 C   0  0  0  0  0  0  0  0  0  0  0  0
   -3.1034   -4.9848    0.0000 C   0  0  0  0  0  0  0  0  0  0  0  0
   -2.6909   -2.8414    0.0000 C   0  0  0  0  0  0  0  0  0  0  0  0
   -3.1034   -2.1269    0.0000 C   0  0  0  0  0  0  0  0  0  0  0  0
   -2.6909   -1.4124    0.0000 C   0  0  0  0  0  0  0  0  0  0  0  0
   -1.8659   -1.4124    0.0000 C   0  0  0  0  0  0  0  0  0  0  0  0
   -1.4534   -2.1269    0.0000 C   0  0  0  0  0  0  0  0  0  0  0  0
   -1.8659   -2.8414    0.0000 C   0  0  0  0  0  0  0  0  0  0  0  0
   -1.4534   -3.5558    0.0000 F   0  0  0  0  0  0  0  0  0  0  0  0
   -1.4534   -0.6979    0.0000 C   0  0  0  0  0  0  0  0  0  0  0  0
   -1.8659    0.0165    0.0000 O   0  0  0  0  0  0  0  0  0  0  0  0
   -0.6284   -0.6979    0.0000 C   0  0  0  0  0  0  0  0  0  0  0  0
   -0.1435   -1.3654    0.0000 C   0  0  0  0  0  0  0  0  0  0  0  0
    0.6411   -1.1104    0.0000 C   0  0  0  0  0  0  0  0  0  0  0  0
    0.6411   -0.2854    0.0000 C   0  0  0  0  0  0  0  0  0  0  0  0
   -0.1435   -0.0305    0.0000 S   0  0  0  0  0  0  0  0  0  0  0  0
    1.3556    0.1271    0.0000 C   0  0  0  0  0  0  0  0  0  0  0  0
    1.3556    0.9521    0.0000 O   0  0  0  0  0  0  0  0  0  0  0  0
    2.0701   -0.2854    0.0000 N   0  0  0  0  0  0  0  0  0  0  0  0
    2.0701   -1.1104    0.0000 N   0  0  0  0  0  0  0  0  0  0  0  0
    1.3556   -1.5229    0.0000 C   0  0  0  0  0  0  0  0  0  0  0  0
    1.3556   -2.3479    0.0000 O   0  0  0  0  0  0  0  0  0  0  0  0
  1  2  1  0  0  0  0
  2  3  1  0  0  0  0
  3  4  1  0  0  0  0
  4  5  1  0  0  0  0
  5  6  1  0  0  0  0
  6  7  1  0  0  0  0
  2  7  1  0  0  0  0
  5  8  1  0  0  0  0
  8  9  2  0  0  0  0
  9 10  1  0  0  0  0
 10 11  2  0  0  0  0
 11 12  1  0  0  0  0
 12 13  2  0  0  0  0
  8 13  1  0  0  0  0
 13 14  1  0  0  0  0
 11 15  1  0  0  0  0
 15 16  2  0  0  0  0
 15 17  1  0  0  0  0
 17 18  2  0  0  0  0
 18 19  1  0  0  0  0
 19 20  2  0  0  0  0
 20 21  1  0  0  0  0
 17 21  1  0  0  0  0
 20 22  1  0  0  0  0
 22 23  2  0  0  0  0
 22 24  1  0  0  0  0
 24 25  1  0  0  0  0
 25 26  1  0  0  0  0
 19 26  1  0  0  0  0
 26 27  2  0  0  0  0
M  END
> <ID>
CPD_3947

$$$$
CPD_3952
  Mrv1822 09091914012D          

 25 27  0  0  0  0            999 V2000
   -3.1034   -4.9848    0.0000 C   0  0  0  0  0  0  0  0  0  0  0  0
   -3.5159   -4.2703    0.0000 N   0  0  0  0  0  0  0  0  0  0  0  0
   -4.3409   -4.2703    0.0000 C   0  0  0  0  0  0  0  0  0  0  0  0
   -3.1034   -3.5558    0.0000 S   0  0  0  0  0  0  0  0  0  0  0  0
   -2.3890   -3.9683    0.0000 O   0  0  0  0  0  0  0  0  0  0  0  0
   -3.8179   -3.1433    0.0000 O   0  0  0  0  0  0  0  0  0  0  0  0
   -2.6909   -2.8414    0.0000 C   0  0  0  0  0  0  0  0  0  0  0  0
   -3.1034   -2.1269    0.0000 C   0  0  0  0  0  0  0  0  0  0  0  0
   -2.6909   -1.4124    0.0000 C   0  0  0  0  0  0  0  0  0  0  0  0
   -1.8659   -1.4124    0.0000 C   0  0  0  0  0  0  0  0  0  0  0  0
   -1.4534   -2.1269    0.0000 C   0  0  0  0  0  0  0  0  0  0  0  0
   -1.8659   -2.8414    0.0000 C   0  0  0  0  0  0  0  0  0  0  0  0
   -1.4534   -0.6979    0.0000 C   0  0  0  0  0  0  0  0  0  0  0  0
   -1.8659    0.0165    0.0000 O   0  0  0  0  0  0  0  0  0  0  0  0
   -0.6284   -0.6979    0.0000 C   0  0  0  0  0  0  0  0  0  0  0  0
   -0.1435   -1.3654    0.0000 C   0  0  0  0  0  0  0  0  0  0  0  0
    0.6411   -1.1104    0.0000 C   0  0  0  0  0  0  0  0  0  0  0  0
    0.6411   -0.2854    0.0000 C   0  0  0  0  0  0  0  0  0  0  0  0
   -0.1435   -0.0305    0.0000 S   0  0  0  0  0  0  0  0  0  0  0  0
    1.3556    0.1271    0.0000 C   0  0  0  0  0  0  0  0  0  0  0  0
    1.3556    0.9521    0.0000 O   0  0  0  0  0  0  0  0  0  0  0  0
    2.0701   -0.2854    0.0000 N   0  0  0  0  0  0  0  0  0  0  0  0
    2.0701   -1.1104    0.0000 N   0  0  0  0  0  0  0  0  0  0  0  0
    1.3556   -1.5229    0.0000 C   0  0  0  0  0  0  0  0  0  0  0  0
    1.3556   -2.3479    0.0000 O   0  0  0  0  0  0  0  0  0  0  0  0
  1  2  1  0  0  0  0
  2  3  1  0  0  0  0
  2  4  1  0  0  0  0
  4  5  2  0  0  0  0
  4  6  2  0  0  0  0
  4  7  1  0  0  0  0
  7  8  2  0  0  0  0
  8  9  1  0  0  0  0
  9 10  2  0  0  0  0
 10 11  1  0  0  0  0
 11 12  2  0  0  0  0
  7 12  1  0  0  0  0
 10 13  1  0  0  0  0
 13 14  2  0  0  0  0
 13 15  1  0  0  0  0
 15 16  2  0  0  0  0
 16 17  1  0  0  0  0
 17 18  2  0  0  0  0
 18 19  1  0  0  0  0
 15 19  1  0  0  0  0
 18 20  1  0  0  0  0
 20 21  2  0  0  0  0
 20 22  1  0  0  0  0
 22 23  1  0  0  0  0
 23 24  1  0  0  0  0
 17 24  1  0  0  0  0
 24 25  2  0  0  0  0
M  END
> <ID>
CPD_3952

$$$$
CPD_3957
  Mrv1822 09091914012D          

 19 21  0  0  0  0            999 V2000
   -2.0572   -3.5386    0.0000 C   0  0  0  0  0  0  0  0  0  0  0  0
   -2.1435   -2.7181    0.0000 C   0  0  0  0  0  0  0  0  0  0  0  0
   -2.8579   -2.3056    0.0000 C   0  0  0  0  0  0  0  0  0  0  0  0
   -2.6864   -1.4986    0.0000 N   0  0  0  0  0  0  0  0  0  0  0  0
   -1.8659   -1.4124    0.0000 C   0  0  0  0  0  0  0  0  0  0  0  0
   -1.5304   -2.1661    0.0000 O   0  0  0  0  0  0  0  0  0  0  0  0
   -1.4534   -0.6979    0.0000 C   0  0  0  0  0  0  0  0  0  0  0  0
   -1.8659    0.0165    0.0000 O   0  0  0  0  0  0  0  0  0  0  0  0
   -0.6284   -0.6979    0.0000 C   0  0  0  0  0  0  0  0  0  0  0  0
   -0.1435   -1.3654    0.0000 C   0  0  0  0  0  0  0  0  0  0  0  0
    0.6411   -1.1104    0.0000 C   0  0  0  0  0  0  0  0  0  0  0  0
    0.6411   -0.2854    0.0000 C   0  0  0  0  0  0  0  0  0  0  0  0
   -0.1435   -0.0305    0.0000 S   0  0  0  0  0  0  0  0  0  0  0  0
    1.3556    0.1271    0.0000 C   0  0  0  0  0  0  0  0  0  0  0  0
    1.3556    0.9521    0.0000 O   0  0  0  0  0  0  0  0  0  0  0  0
    2.0701   -0.2854    0.0000 N   0  0  0  0  0  0  0  0  0  0  0  0
    2.0701   -1.1104    0.0000 N   0  0  0  0  0  0  0  0  0  0  0  0
    1.3556   -1.5229    0.0000 C   0  0  0  0  0  0  0  0  0  0  0  0
    1.3556   -2.3479    0.0000 O   0  0  0  0  0  0  0  0  0  0  0  0
  1  2  1  0  0  0  0
  2  3  2  0  0  0  0
  3  4  1  0  0  0  0
  4  5  2  0  0  0  0
  5  6  1  0  0  0  0
  2  6  1  0  0  0  0
  5  7  1  0  0  0  0
  7  8  2  0  0  0  0
  7  9  1  0  0  0  0
  9 10  2  0  0  0  0
 10 11  1  0  0  0  0
 11 12  2  0  0  0  0
 12 13  1  0  0  0  0
  9 13  1  0  0  0  0
 12 14  1  0  0  0  0
 14 15  2  0  0  0  0
 14 16  1  0  0  0  0
 16 17  1  0  0  0  0
 17 18  1  0  0  0  0
 11 18  1  0  0  0  0
 18 19  2  0  0  0  0
M  END
> <ID>
CPD_3957

$$$$
CPD_3962
  Mrv1822 09091914012D          

 25 28  0  0  0  0            999 V2000
   -1.8659    0.0165    0.0000 O   0  0  0  0  0  0  0  0  0  0  0  0
   -1.4534   -0.6979    0.0000 C   0  0  0  0  0  0  0  0  0  0  0  0
   -1.8659   -1.4124    0.0000 C   0  0  0  0  0  0  0  0  0  0  0  0
   -2.6909   -1.4124    0.0000 N   0  0  0  0  0  0  0  0  0  0  0  0
   -3.1759   -0.7450    0.0000 C   0  0  0  0  0  0  0  0  0  0  0  0
   -2.9209    0.0396    0.0000 O   0  0  0  0  0  0  0  0  0  0  0  0
   -3.9605   -0.9999    0.0000 C   0  0  0  0  0  0  0  0  0  0  0  0
   -3.9605   -1.8249    0.0000 C   0  0  0  0  0  0  0  0  0  0  0  0
   -4.6749   -2.2374    0.0000 C   0  0  0  0  0  0  0  0  0  0  0  0
   -5.3894   -1.8249    0.0000 C   0  0  0  0  0  0  0  0  0  0  0  0
   -5.3894   -0.9999    0.0000 C   0  0  0  0  0  0  0  0  0  0  0  0
   -4.6749   -0.5874    0.0000 C   0  0  0  0  0  0  0  0  0  0  0  0
   -3.1759   -2.0799    0.0000 C   0  0  0  0  0  0  0  0  0  0  0  0
   -2.9209   -2.8645    0.0000 O   0  0  0  0  0  0  0  0  0  0  0  0
   -0.6284   -0.6979    0.0000 C   0  0  0  0  0  0  0  0  0  0  0  0
   -0.1435   -1.3654    0.0000 C   0  0  0  0  0  0  0  0  0  0  0  0
    0.6411   -1.1104    0.0000 C   0  0  0  0  0  0  0  0  0  0  0  0
    0.6411   -0.2854    0.0000 C   0  0  0  0  0  0  0  0  0  0  0  0
   -0.1435   -0.0305    0.0000 S   0  0  0  0  0  0  0  0  0  0  0  0
    1.3556    0.1271    0.0000 C   0  0  0  0  0  0  0  0  0  0  0  0
    1.3556    0.9521    0.0000 O   0  0  0  0  0  0  0  0  0  0  0  0
    2.0701   -0.2854    0.0000 N   0  0  0  0  0  0  0  0  0  0  0  0
    2.0701   -1.1104    0.0000 N   0  0  0  0  0  0  0  0  0  0  0  0
    1.3556   -1.5229    0.0000 C   0  0  0  0  0  0  0  0  0  0  0  0
    1.3556   -2.3479    0.0000 O   0  0  0  0  0  0  0  0  0  0  0  0
  1  2  2  0  0  0  0
  2  3  1  0  0  0  0
  3  4  1  0  0  0  0
  4  5  1  0  0  0  0
  5  6  2  0  0  0  0
  5  7  1  0  0  0  0
  7  8  2  0  0  0  0
  8  9  1  0  0  0  0
  9 10  2  0  0  0  0
 10 11  1  0  0  0  0
 11 12  2  0  0  0  0
  7 12  1  0  0  0  0
  8 13  1  0  0  0  0
  4 13  1  0  0  0  0
 13 14  2  0  0  0  0
  2 15  1  0  0  0  0
 15 16  2  0  0  0  0
 16 17  1  0  0  0  0
 17 18  2  0  0  0  0
 18 19  1  0  0  0  0
 15 19  1  0  0  0  0
 18 20  1  0  0  0  0
 20 21  2  0  0  0  0
 20 22  1  0  0  0  0
 22 23  1  0  0  0  0
 23 24  1  0  0  0  0
 17 24  1  0  0  0  0
 24 25  2  0  0  0  0
M  END
> <ID>
CPD_3962

$$$$
CPD_3967
  Mrv1822 09091914012D          

 25 27  0  0  0  0            999 V2000
    1.3222   -0.0616    0.0000 O   0  0  0  0  0  0  0  0  0  0  0  0
    2.0367   -0.4741    0.0000 C   0  0  0  0  0  0  0  0  0  0  0  0
    2.7512   -0.0616    0.0000 C   0  0  0  0  0  0  0  0  0  0  0  0
    3.4656   -0.4741    0.0000 C   0  0  0  0  0  0  0  0  0  0  0  0
    4.1801   -0.0616    0.0000 O   0  0  0  0  0  0  0  0  0  0  0  0
    3.4656   -1.2991    0.0000 C   0  0  0  0  0  0  0  0  0  0  0  0
    2.7512   -1.7116    0.0000 C   0  0  0  0  0  0  0  0  0  0  0  0
    2.0367   -1.2991    0.0000 C   0  0  0  0  0  0  0  0  0  0  0  0
    2.7512   -2.5366    0.0000 C   0  0  0  0  0  0  0  0  0  0  0  0
    3.4186   -3.0215    0.0000 C   0  0  0  0  0  0  0  0  0  0  0  0
    3.1637   -3.8062    0.0000 C   0  0  0  0  0  0  0  0  0  0  0  0
    2.3387   -3.8062    0.0000 C   0  0  0  0  0  0  0  0  0  0  0  0
    2.0837   -3.0215    0.0000 O   0  0  0  0  0  0  0  0  0  0  0  0
    1.8538   -4.4736    0.0000 C   0  0  0  0  0  0  0  0  0  0  0  0
    2.1893   -5.2273    0.0000 O   0  0  0  0  0  0  0  0  0  0  0  0
    1.0333   -4.3874    0.0000 C   0  0  0  0  0  0  0  0  0  0  0  0
    0.5484   -5.0548    0.0000 N   0  0  0  0  0  0  0  0  0  0  0  0
   -0.2721   -4.9686    0.0000 C   0  0  0  0  0  0  0  0  0  0  0  0
   -0.7571   -5.6360    0.0000 C   0  0  0  0  0  0  0  0  0  0  0  0
   -1.5775   -5.5498    0.0000 C   0  0  0  0  0  0  0  0  0  0  0  0
   -2.0625   -6.2172    0.0000 Cl  0  0  0  0  0  0  0  0  0  0  0  0
   -1.9131   -4.7961    0.0000 C   0  0  0  0  0  0  0  0  0  0  0  0
   -2.7336   -4.7098    0.0000 F   0  0  0  0  0  0  0  0  0  0  0  0
   -1.4282   -4.1286    0.0000 C   0  0  0  0  0  0  0  0  0  0  0  0
   -0.6077   -4.2149    0.0000 C   0  0  0  0  0  0  0  0  0  0  0  0
  1  2  1  0  0  0  0
  2  3  2  0  0  0  0
  3  4  1  0  0  0  0
  4  5  2  0  0  0  0
  4  6  1  0  0  0  0
  6  7  1  0  0  0  0
  7  8  1  0  0  0  0
  2  8  1  0  0  0  0
  7  9  1  0  0  0  0
  9 10  2  0  0  0  0
 10 11  1  0  0  0  0
 11 12  2  0  0  0  0
 12 13  1  0  0  0  0
  9 13  1  0  0  0  0
 12 14  1  0  0  0  0
 14 15  2  0  0  0  0
 14 16  1  0  0  0  0
 16 17  1  0  0  0  0
 17 18  1  0  0  0  0
 18 19  2  0  0  0  0
 19 20  1  0  0  0  0
 20 21  1  0  0  0  0
 20 22  2  0  0  0  0
 22 23  1  0  0  0  0
 22 24  1  0  0  0  0
 24 25  2  0  0  0  0
 18 25  1  0  0  0  0
M  END
> <ID>
CPD_3967

$$$$
CPD_3972
  Mrv1822 09091914012D          

 24 26  0  0  0  0            999 V2000
    0.6078    0.3509    0.0000 O   0  0  0  0  0  0  0  0  0  0  0  0
    1.3222   -0.0616    0.0000 C   0  0  0  0  0  0  0  0  0  0  0  0
    2.0367    0.3509    0.0000 C   0  0  0  0  0  0  0  0  0  0  0  0
    2.7512   -0.0616    0.0000 C   0  0  0  0  0  0  0  0  0  0  0  0
    3.4656    0.3509    0.0000 O   0  0  0  0  0  0  0  0  0  0  0  0
    2.7512   -0.8866    0.0000 C   0  0  0  0  0  0  0  0  0  0  0  0
    2.0367   -1.2991    0.0000 C   0  0  0  0  0  0  0  0  0  0  0  0
    1.3222   -0.8866    0.0000 C   0  0  0  0  0  0  0  0  0  0  0  0
    2.0367   -2.1241    0.0000 C   0  0  0  0  0  0  0  0  0  0  0  0
    2.7041   -2.6090    0.0000 C   0  0  0  0  0  0  0  0  0  0  0  0
    2.4492   -3.3937    0.0000 C   0  0  0  0  0  0  0  0  0  0  0  0
    1.6242   -3.3937    0.0000 C   0  0  0  0  0  0  0  0  0  0  0  0
    1.3693   -2.6090    0.0000 O   0  0  0  0  0  0  0  0  0  0  0  0
    1.1393   -4.0611    0.0000 C   0  0  0  0  0  0  0  0  0  0  0  0
    1.4748   -4.8148    0.0000 O   0  0  0  0  0  0  0  0  0  0  0  0
    0.3188   -3.9749    0.0000 C   0  0  0  0  0  0  0  0  0  0  0  0
    0.4050   -3.1544    0.0000 F   0  0  0  0  0  0  0  0  0  0  0  0
    0.2326   -4.7953    0.0000 F   0  0  0  0  0  0  0  0  0  0  0  0
   -0.5017   -3.8886    0.0000 C   0  0  0  0  0  0  0  0  0  0  0  0
   -0.9866   -4.5561    0.0000 C   0  0  0  0  0  0  0  0  0  0  0  0
   -1.8071   -4.4698    0.0000 C   0  0  0  0  0  0  0  0  0  0  0  0
   -2.1426   -3.7161    0.0000 C   0  0  0  0  0  0  0  0  0  0  0  0
   -1.6577   -3.0487    0.0000 C   0  0  0  0  0  0  0  0  0  0  0  0
   -0.8372   -3.1349    0.0000 C   0  0  0  0  0  0  0  0  0  0  0  0
  1  2  1  0  0  0  0
  2  3  2  0  0  0  0
  3  4  1  0  0  0  0
  4  5  2  0  0  0  0
  4  6  1  0  0  0  0
  6  7  1  0  0  0  0
  7  8  1  0  0  0  0
  2  8  1  0  0  0  0
  7  9  1  0  0  0  0
  9 10  2  0  0  0  0
 10 11  1  0  0  0  0
 11 12  2  0  0  0  0
 12 13  1  0  0  0  0
  9 13  1  0  0  0  0
 12 14  1  0  0  0  0
 14 15  2  0  0  0  0
 14 16  1  0  0  0  0
 16 17  1  0  0  0  0
 16 18  1  0  0  0  0
 16 19  1  0  0  0  0
 19 20  2  0  0  0  0
 20 21  1  0  0  0  0
 21 22  2  0  0  0  0
 22 23  1  0  0  0  0
 23 24  2  0  0  0  0
 19 24  1  0  0  0  0
M  END
> <ID>
CPD_3972

$$$$
CPD_3977
  Mrv1822 09091914012D          

 27 30  0  0  0  0            999 V2000
    0.9909   -0.5675    0.0000 C   0  0  0  0  0  0  0  0  0  0  0  0
    0.9909   -1.3925    0.0000 C   0  0  0  0  0  0  0  0  0  0  0  0
    1.7054   -1.8050    0.0000 C   0  0  0  0  0  0  0  0  0  0  0  0
    1.7054   -2.6300    0.0000 C   0  0  0  0  0  0  0  0  0  0  0  0
    0.9909   -3.0425    0.0000 C   0  0  0  0  0  0  0  0  0  0  0  0
    0.2764   -2.6300    0.0000 C   0  0  0  0  0  0  0  0  0  0  0  0
    0.2764   -1.8050    0.0000 C   0  0  0  0  0  0  0  0  0  0  0  0
    0.9909   -3.8675    0.0000 C   0  0  0  0  0  0  0  0  0  0  0  0
    1.6583   -4.3524    0.0000 C   0  0  0  0  0  0  0  0  0  0  0  0
    1.4034   -5.1370    0.0000 C   0  0  0  0  0  0  0  0  0  0  0  0
    0.5784   -5.1370    0.0000 C   0  0  0  0  0  0  0  0  0  0  0  0
    0.3235   -4.3524    0.0000 O   0  0  0  0  0  0  0  0  0  0  0  0
    0.0935   -5.8045    0.0000 C   0  0  0  0  0  0  0  0  0  0  0  0
   -0.7270   -5.7182    0.0000 O   0  0  0  0  0  0  0  0  0  0  0  0
    0.4290   -6.5581    0.0000 C   0  0  0  0  0  0  0  0  0  0  0  0
    1.2360   -6.7297    0.0000 C   0  0  0  0  0  0  0  0  0  0  0  0
    1.3222   -7.5502    0.0000 C   0  0  0  0  0  0  0  0  0  0  0  0
    0.5686   -7.8857    0.0000 C   0  0  0  0  0  0  0  0  0  0  0  0
    0.0165   -7.2726    0.0000 O   0  0  0  0  0  0  0  0  0  0  0  0
    0.3970   -8.6927    0.0000 C   0  0  0  0  0  0  0  0  0  0  0  0
    1.0101   -9.2447    0.0000 C   0  0  0  0  0  0  0  0  0  0  0  0
    0.8386  -10.0517    0.0000 C   0  0  0  0  0  0  0  0  0  0  0  0
    1.4517  -10.6037    0.0000 O   0  0  0  0  0  0  0  0  0  0  0  0
    0.0540  -10.3066    0.0000 C   0  0  0  0  0  0  0  0  0  0  0  0
   -0.5591   -9.7546    0.0000 C   0  0  0  0  0  0  0  0  0  0  0  0
   -1.3437  -10.0095    0.0000 O   0  0  0  0  0  0  0  0  0  0  0  0
   -0.3876   -8.9476    0.0000 C   0  0  0  0  0  0  0  0  0  0  0  0
  1  2  1  0  0  0  0
  2  3  2  0  0  0  0
  3  4  1  0  0  0  0
  4  5  2  0  0  0  0
  5  6  1  0  0  0  0
  6  7  2  0  0  0  0
  2  7  1  0  0  0  0
  5  8  1  0  0  0  0
  8  9  2  0  0  0  0
  9 10  1  0  0  0  0
 10 11  2  0  0  0  0
 11 12  1  0  0  0  0
  8 12  1  0  0  0  0
 11 13  1  0  0  0  0
 13 14  2  0  0  0  0
 13 15  1  0  0  0  0
 15 16  2  0  0  0  0
 16 17  1  0  0  0  0
 17 18  2  0  0  0  0
 18 19  1  0  0  0  0
 15 19  1  0  0  0  0
 18 20  1  0  0  0  0
 20 21  1  0  0  0  0
 21 22  1  0  0  0  0
 22 23  1  0  0  0  0
 22 24  2  0  0  0  0
 24 25  1  0  0  0  0
 25 26  2  0  0  0  0
 25 27  1  0  0  0  0
 20 27  1  0  0  0  0
M  END
> <ID>
CPD_3977

$$$$
CPD_3982
  Mrv1822 09091914012D          

 34 37  0  0  0  0            999 V2000
    7.1447    3.3000    0.0000 C   0  0  0  0  0  0  0  0  0  0  0  0
    7.1447    2.4750    0.0000 C   0  0  0  0  0  0  0  0  0  0  0  0
    6.4302    2.0625    0.0000 N   0  0  0  0  0  0  0  0  0  0  0  0
    6.4302    1.2375    0.0000 C   0  0  0  0  0  0  0  0  0  0  0  0
    7.1447    0.8250    0.0000 O   0  0  0  0  0  0  0  0  0  0  0  0
    5.7158    0.8250    0.0000 C   0  0  0  0  0  0  0  0  0  0  0  0
    5.7158   -0.0000    0.0000 C   0  0  0  0  0  0  0  0  0  0  0  0
    6.4302   -0.4125    0.0000 F   0  0  0  0  0  0  0  0  0  0  0  0
    5.0013   -0.4125    0.0000 C   0  0  0  0  0  0  0  0  0  0  0  0
    4.2868   -0.0000    0.0000 C   0  0  0  0  0  0  0  0  0  0  0  0
    4.2868    0.8250    0.0000 C   0  0  0  0  0  0  0  0  0  0  0  0
    5.0013    1.2375    0.0000 C   0  0  0  0  0  0  0  0  0  0  0  0
    3.5724   -0.4125    0.0000 C   0  0  0  0  0  0  0  0  0  0  0  0
    3.5724   -1.2375    0.0000 C   0  0  0  0  0  0  0  0  0  0  0  0
    2.8579   -1.6500    0.0000 C   0  0  0  0  0  0  0  0  0  0  0  0
    2.1434   -1.2375    0.0000 C   0  0  0  0  0  0  0  0  0  0  0  0
    2.1434   -0.4125    0.0000 C   0  0  0  0  0  0  0  0  0  0  0  0
    1.4289   -0.0000    0.0000 C   0  0  0  0  0  0  0  0  0  0  0  0
    0.7145   -0.4125    0.0000 C   0  0  0  0  0  0  0  0  0  0  0  0
    0.0000    0.0000    0.0000 O   0  0  0  0  0  0  0  0  0  0  0  0
    0.7145   -1.2375    0.0000 C   0  0  0  0  0  0  0  0  0  0  0  0
    1.3819   -1.7224    0.0000 C   0  0  0  0  0  0  0  0  0  0  0  0
    1.1270   -2.5070    0.0000 C   0  0  0  0  0  0  0  0  0  0  0  0
    0.3020   -2.5070    0.0000 C   0  0  0  0  0  0  0  0  0  0  0  0
    0.0470   -1.7224    0.0000 O   0  0  0  0  0  0  0  0  0  0  0  0
   -0.1830   -3.1745    0.0000 C   0  0  0  0  0  0  0  0  0  0  0  0
    0.1526   -3.9282    0.0000 C   0  0  0  0  0  0  0  0  0  0  0  0
   -0.3323   -4.5956    0.0000 C   0  0  0  0  0  0  0  0  0  0  0  0
    0.0032   -5.3493    0.0000 O   0  0  0  0  0  0  0  0  0  0  0  0
   -1.1528   -4.5094    0.0000 C   0  0  0  0  0  0  0  0  0  0  0  0
   -1.4884   -3.7557    0.0000 C   0  0  0  0  0  0  0  0  0  0  0  0
   -2.3088   -3.6695    0.0000 O   0  0  0  0  0  0  0  0  0  0  0  0
   -1.0034   -3.0882    0.0000 C   0  0  0  0  0  0  0  0  0  0  0  0
    2.8579   -0.0000    0.0000 C   0  0  0  0  0  0  0  0  0  0  0  0
  1  2  1  0  0  0  0
  2  3  1  0  0  0  0
  3  4  1  0  0  0  0
  4  5  2  0  0  0  0
  4  6  1  0  0  0  0
  6  7  2  0  0  0  0
  7  8  1  0  0  0  0
  7  9  1  0  0  0  0
  9 10  2  0  0  0  0
 10 11  1  0  0  0  0
 11 12  2  0  0  0  0
  6 12  1  0  0  0  0
 10 13  1  0  0  0  0
 13 14  2  0  0  0  0
 14 15  1  0  0  0  0
 15 16  2  0  0  0  0
 16 17  1  0  0  0  0
 17 18  1  0  0  0  0
 18 19  1  0  0  0  0
 19 20  2  0  0  0  0
 19 21  1  0  0  0  0
 21 22  2  0  0  0  0
 22 23  1  0  0  0  0
 23 24  2  0  0  0  0
 24 25  1  0  0  0  0
 21 25  1  0  0  0  0
 24 26  1  0  0  0  0
 26 27  1  0  0  0  0
 27 28  1  0  0  0  0
 28 29  1  0  0  0  0
 28 30  2  0  0  0  0
 30 31  1  0  0  0  0
 31 32  2  0  0  0  0
 31 33  1  0  0  0  0
 26 33  1  0  0  0  0
 17 34  2  0  0  0  0
 13 34  1  0  0  0  0
M  END
> <ID>
CPD_3982

$$$$
CPD_3987
  Mrv1822 09091914012D          

 33 35  0  0  0  0            999 V2000
    4.0668    2.3479    0.0000 C   0  0  0  0  0  0  0  0  0  0  0  0
    3.3523    1.9354    0.0000 C   0  0  0  0  0  0  0  0  0  0  0  0
    3.3523    1.1104    0.0000 C   0  0  0  0  0  0  0  0  0  0  0  0
    2.6378    0.6979    0.0000 N   0  0  0  0  0  0  0  0  0  0  0  0
    1.9233    1.1104    0.0000 C   0  0  0  0  0  0  0  0  0  0  0  0
    1.1387    0.8555    0.0000 N   0  0  0  0  0  0  0  0  0  0  0  0
    0.8838    0.0709    0.0000 C   0  0  0  0  0  0  0  0  0  0  0  0
    0.0768   -0.1006    0.0000 O   0  0  0  0  0  0  0  0  0  0  0  0
    1.4358   -0.5422    0.0000 O   0  0  0  0  0  0  0  0  0  0  0  0
    1.1809   -1.3268    0.0000 C   0  0  0  0  0  0  0  0  0  0  0  0
    0.3963   -1.0719    0.0000 C   0  0  0  0  0  0  0  0  0  0  0  0
    1.9655   -1.5818    0.0000 C   0  0  0  0  0  0  0  0  0  0  0  0
    0.9259   -2.1115    0.0000 C   0  0  0  0  0  0  0  0  0  0  0  0
    0.6538    1.5229    0.0000 C   0  0  0  0  0  0  0  0  0  0  0  0
   -0.1712    1.5229    0.0000 C   0  0  0  0  0  0  0  0  0  0  0  0
   -0.5837    2.2374    0.0000 O   0  0  0  0  0  0  0  0  0  0  0  0
   -0.5837    0.8085    0.0000 C   0  0  0  0  0  0  0  0  0  0  0  0
   -1.4087    0.8085    0.0000 S   0  0  0  0  0  0  0  0  0  0  0  0
   -1.4087    1.6335    0.0000 O   0  0  0  0  0  0  0  0  0  0  0  0
   -1.4087   -0.0165    0.0000 O   0  0  0  0  0  0  0  0  0  0  0  0
   -2.2337    0.8085    0.0000 C   0  0  0  0  0  0  0  0  0  0  0  0
   -2.6462    0.0940    0.0000 C   0  0  0  0  0  0  0  0  0  0  0  0
   -3.4712    0.0940    0.0000 C   0  0  0  0  0  0  0  0  0  0  0  0
   -3.8837    0.8085    0.0000 C   0  0  0  0  0  0  0  0  0  0  0  0
   -3.4712    1.5229    0.0000 C   0  0  0  0  0  0  0  0  0  0  0  0
   -2.6462    1.5229    0.0000 C   0  0  0  0  0  0  0  0  0  0  0  0
   -4.7087    0.8085    0.0000 C   0  0  0  0  0  0  0  0  0  0  0  0
   -5.5337    0.8085    0.0000 N   0  0  0  0  0  0  0  0  0  0  0  0
    1.1387    2.1904    0.0000 C   0  0  0  0  0  0  0  0  0  0  0  0
    0.8838    2.9750    0.0000 C   0  0  0  0  0  0  0  0  0  0  0  0
    1.4358    3.5881    0.0000 O   0  0  0  0  0  0  0  0  0  0  0  0
    1.9233    1.9354    0.0000 C   0  0  0  0  0  0  0  0  0  0  0  0
    2.6378    2.3479    0.0000 C   0  0  0  0  0  0  0  0  0  0  0  0
  1  2  1  0  0  0  0
  2  3  2  0  0  0  0
  3  4  1  0  0  0  0
  4  5  2  0  0  0  0
  5  6  1  0  0  0  0
  6  7  1  0  0  0  0
  7  8  2  0  0  0  0
  7  9  1  0  0  0  0
  9 10  1  0  0  0  0
 10 11  1  0  0  0  0
 10 12  1  0  0  0  0
 10 13  1  0  0  0  0
  6 14  1  0  0  0  0
 14 15  1  0  0  0  0
 15 16  2  0  0  0  0
 15 17  1  0  0  0  0
 17 18  1  0  0  0  0
 18 19  2  0  0  0  0
 18 20  2  0  0  0  0
 18 21  1  0  0  0  0
 21 22  2  0  0  0  0
 22 23  1  0  0  0  0
 23 24  2  0  0  0  0
 24 25  1  0  0  0  0
 25 26  2  0  0  0  0
 21 26  1  0  0  0  0
 24 27  1  0  0  0  0
 27 28  3  0  0  0  0
 14 29  2  0  0  0  0
 29 30  1  0  0  0  0
 30 31  1  0  0  0  0
 29 32  1  0  0  0  0
  5 32  1  0  0  0  0
 32 33  2  0  0  0  0
  2 33  1  0  0  0  0
M  END
> <ID>
CPD_3987

$$$$
CPD_3992
  Mrv1822 09091914012D          

 34 35  0  0  1  0            999 V2000
   -1.1387    5.0747    0.0000 C   0  0  0  0  0  0  0  0  0  0  0  0
   -0.3137    5.0747    0.0000 C   0  0  0  0  0  0  0  0  0  0  0  0
    0.0988    5.7892    0.0000 C   0  0  0  0  0  0  0  0  0  0  0  0
    0.9238    5.7892    0.0000 N   0  0  0  0  0  0  0  0  0  0  0  0
    1.3363    5.0747    0.0000 C   0  0  0  0  0  0  0  0  0  0  0  0
    2.1433    4.9032    0.0000 N   0  0  0  0  0  0  0  0  0  0  0  0
    2.7564    5.4552    0.0000 C   0  0  0  0  0  0  0  0  0  0  0  0
    3.5410    5.2003    0.0000 O   0  0  0  0  0  0  0  0  0  0  0  0
    2.5848    6.2622    0.0000 O   0  0  0  0  0  0  0  0  0  0  0  0
    3.1979    6.8142    0.0000 C   0  0  0  0  0  0  0  0  0  0  0  0
    3.7500    6.2011    0.0000 C   0  0  0  0  0  0  0  0  0  0  0  0
    2.6459    7.4273    0.0000 C   0  0  0  0  0  0  0  0  0  0  0  0
    3.8110    7.3662    0.0000 C   0  0  0  0  0  0  0  0  0  0  0  0
    2.2295    4.0827    0.0000 C   0  0  0  0  0  0  0  0  0  0  0  0
    2.9440    3.6702    0.0000 C   0  0  0  0  0  0  0  0  0  0  0  0
    3.6584    4.0827    0.0000 O   0  0  0  0  0  0  0  0  0  0  0  0
    2.9440    2.8452    0.0000 C   0  0  0  0  0  0  0  0  0  0  0  0
    3.6584    2.4327    0.0000 C   0  0  1  0  0  0  0  0  0  0  0  0
    3.6584    1.6077    0.0000 N   0  0  0  0  0  0  0  0  0  0  0  0
    4.3729    1.1952    0.0000 C   0  0  0  0  0  0  0  0  0  0  0  0
    5.0874    1.6077    0.0000 O   0  0  0  0  0  0  0  0  0  0  0  0
    4.3729    0.3702    0.0000 O   0  0  0  0  0  0  0  0  0  0  0  0
    5.0874   -0.0423    0.0000 C   0  0  0  0  0  0  0  0  0  0  0  0
    5.8019   -0.4548    0.0000 C   0  0  0  0  0  0  0  0  0  0  0  0
    4.6749   -0.7568    0.0000 C   0  0  0  0  0  0  0  0  0  0  0  0
    5.4999    0.6721    0.0000 C   0  0  0  0  0  0  0  0  0  0  0  0
    4.3729    2.8452    0.0000 C   0  0  0  0  0  0  0  0  0  0  0  0
    4.3729    3.6702    0.0000 O   0  0  0  0  0  0  0  0  0  0  0  0
    5.0874    2.4327    0.0000 O   0  0  0  0  0  0  0  0  0  0  0  0
    1.4758    3.7471    0.0000 C   0  0  0  0  0  0  0  0  0  0  0  0
    1.3043    2.9401    0.0000 C   0  0  0  0  0  0  0  0  0  0  0  0
    0.5197    2.6852    0.0000 O   0  0  0  0  0  0  0  0  0  0  0  0
    0.9238    4.3602    0.0000 C   0  0  0  0  0  0  0  0  0  0  0  0
    0.0988    4.3602    0.0000 C   0  0  0  0  0  0  0  0  0  0  0  0
  1  2  1  0  0  0  0
  2  3  2  0  0  0  0
  3  4  1  0  0  0  0
  4  5  2  0  0  0  0
  5  6  1  0  0  0  0
  6  7  1  0  0  0  0
  7  8  2  0  0  0  0
  7  9  1  0  0  0  0
  9 10  1  0  0  0  0
 10 11  1  0  0  0  0
 10 12  1  0  0  0  0
 10 13  1  0  0  0  0
  6 14  1  0  0  0  0
 14 15  1  0  0  0  0
 15 16  2  0  0  0  0
 15 17  1  0  0  0  0
 18 17  1  0  0  0  0
 18 19  1  6  0  0  0
 19 20  1  0  0  0  0
 20 21  2  0  0  0  0
 20 22  1  0  0  0  0
 22 23  1  0  0  0  0
 23 24  1  0  0  0  0
 23 25  1  0  0  0  0
 23 26  1  0  0  0  0
 18 27  1  0  0  0  0
 27 28  1  0  0  0  0
 27 29  2  0  0  0  0
 14 30  2  0  0  0  0
 30 31  1  0  0  0  0
 31 32  1  0  0  0  0
 30 33  1  0  0  0  0
  5 33  1  0  0  0  0
 33 34  2  0  0  0  0
  2 34  1  0  0  0  0
M  END
> <ID>
CPD_3992

$$$$
CPD_3997
  Mrv1822 09091914012D          

 27 28  0  0  1  0            999 V2000
   -0.5475   -2.7346    0.0000 C   0  0  0  0  0  0  0  0  0  0  0  0
    0.1670   -3.1471    0.0000 C   0  0  0  0  0  0  0  0  0  0  0  0
    0.1670   -3.9721    0.0000 C   0  0  0  0  0  0  0  0  0  0  0  0
    0.8815   -2.7346    0.0000 C   0  0  0  0  0  0  0  0  0  0  0  0
    1.5959   -3.1471    0.0000 C   0  0  2  0  0  0  0  0  0  0  0  0
    1.5959   -3.9721    0.0000 N   0  0  0  0  0  0  0  0  0  0  0  0
    2.3104   -2.7346    0.0000 C   0  0  0  0  0  0  0  0  0  0  0  0
    3.0249   -3.1471    0.0000 O   0  0  0  0  0  0  0  0  0  0  0  0
    2.3104   -1.9096    0.0000 C   0  0  0  0  0  0  0  0  0  0  0  0
    1.6430   -1.4247    0.0000 C   0  0  0  0  0  0  0  0  0  0  0  0
    0.8584   -1.6797    0.0000 C   0  0  0  0  0  0  0  0  0  0  0  0
    0.2453   -1.1276    0.0000 O   0  0  0  0  0  0  0  0  0  0  0  0
    1.8979   -0.6401    0.0000 C   0  0  0  0  0  0  0  0  0  0  0  0
    1.4854    0.0744    0.0000 C   0  0  0  0  0  0  0  0  0  0  0  0
    1.8979    0.7888    0.0000 C   0  0  0  0  0  0  0  0  0  0  0  0
    1.4854    1.5033    0.0000 C   0  0  0  0  0  0  0  0  0  0  0  0
    2.7229    0.7888    0.0000 C   0  0  0  0  0  0  0  0  0  0  0  0
    3.1354    0.0744    0.0000 N   0  0  0  0  0  0  0  0  0  0  0  0
    2.7229   -0.6401    0.0000 C   0  0  0  0  0  0  0  0  0  0  0  0
    2.9779   -1.4247    0.0000 N   0  0  0  0  0  0  0  0  0  0  0  0
    3.7625   -1.6797    0.0000 C   0  0  0  0  0  0  0  0  0  0  0  0
    3.9340   -2.4866    0.0000 O   0  0  0  0  0  0  0  0  0  0  0  0
    4.3756   -1.1276    0.0000 O   0  0  0  0  0  0  0  0  0  0  0  0
    4.2040   -0.3207    0.0000 C   0  0  0  0  0  0  0  0  0  0  0  0
    5.0110   -0.1491    0.0000 C   0  0  0  0  0  0  0  0  0  0  0  0
    3.3971   -0.4922    0.0000 C   0  0  0  0  0  0  0  0  0  0  0  0
    4.0325    0.4863    0.0000 C   0  0  0  0  0  0  0  0  0  0  0  0
  1  2  1  0  0  0  0
  2  3  1  0  0  0  0
  2  4  1  0  0  0  0
  5  4  1  0  0  0  0
  5  6  1  1  0  0  0
  5  7  1  0  0  0  0
  7  8  2  0  0  0  0
  7  9  1  0  0  0  0
  9 10  2  0  0  0  0
 10 11  1  0  0  0  0
 11 12  1  0  0  0  0
 10 13  1  0  0  0  0
 13 14  2  0  0  0  0
 14 15  1  0  0  0  0
 15 16  1  0  0  0  0
 15 17  2  0  0  0  0
 17 18  1  0  0  0  0
 18 19  2  0  0  0  0
 13 19  1  0  0  0  0
 19 20  1  0  0  0  0
  9 20  1  0  0  0  0
 20 21  1  0  0  0  0
 21 22  2  0  0  0  0
 21 23  1  0  0  0  0
 23 24  1  0  0  0  0
 24 25  1  0  0  0  0
 24 26  1  0  0  0  0
 24 27  1  0  0  0  0
M  END
> <ID>
CPD_3997

$$$$
CPD_4002
  Mrv1822 09091914012D          

 24 26  0  0  0  0            999 V2000
   -1.1577    0.2752    0.0000 C   0  0  0  0  0  0  0  0  0  0  0  0
   -1.1577   -0.5498    0.0000 O   0  0  0  0  0  0  0  0  0  0  0  0
   -1.8722   -0.9623    0.0000 C   0  0  0  0  0  0  0  0  0  0  0  0
   -2.5867   -0.5498    0.0000 O   0  0  0  0  0  0  0  0  0  0  0  0
   -1.8722   -1.7873    0.0000 C   0  0  0  0  0  0  0  0  0  0  0  0
   -1.2048   -2.2722    0.0000 N   0  0  0  0  0  0  0  0  0  0  0  0
   -1.4597   -3.0569    0.0000 N   0  0  0  0  0  0  0  0  0  0  0  0
   -2.2847   -3.0569    0.0000 C   0  0  0  0  0  0  0  0  0  0  0  0
   -2.5397   -2.2722    0.0000 C   0  0  0  0  0  0  0  0  0  0  0  0
   -2.7696   -3.7243    0.0000 C   0  0  0  0  0  0  0  0  0  0  0  0
   -2.4341   -4.4780    0.0000 O   0  0  0  0  0  0  0  0  0  0  0  0
   -3.5901   -3.6381    0.0000 C   0  0  0  0  0  0  0  0  0  0  0  0
   -4.0026   -2.9236    0.0000 C   0  0  0  0  0  0  0  0  0  0  0  0
   -4.8096   -3.0951    0.0000 C   0  0  0  0  0  0  0  0  0  0  0  0
   -5.4227   -2.5431    0.0000 Br  0  0  0  0  0  0  0  0  0  0  0  0
   -4.8958   -3.9156    0.0000 N   0  0  0  0  0  0  0  0  0  0  0  0
   -4.1421   -4.2512    0.0000 N   0  0  0  0  0  0  0  0  0  0  0  0
   -3.9706   -5.0581    0.0000 C   0  0  0  0  0  0  0  0  0  0  0  0
   -3.1860   -5.3131    0.0000 N   0  0  0  0  0  0  0  0  0  0  0  0
   -3.0145   -6.1200    0.0000 C   0  0  0  0  0  0  0  0  0  0  0  0
   -3.6276   -6.6721    0.0000 C   0  0  0  0  0  0  0  0  0  0  0  0
   -4.4122   -6.4171    0.0000 C   0  0  0  0  0  0  0  0  0  0  0  0
   -4.5837   -5.6102    0.0000 C   0  0  0  0  0  0  0  0  0  0  0  0
   -5.3683   -5.3552    0.0000 Cl  0  0  0  0  0  0  0  0  0  0  0  0
  1  2  1  0  0  0  0
  2  3  1  0  0  0  0
  3  4  2  0  0  0  0
  3  5  1  0  0  0  0
  5  6  2  0  0  0  0
  6  7  1  0  0  0  0
  7  8  1  0  0  0  0
  8  9  2  0  0  0  0
  5  9  1  0  0  0  0
  8 10  1  0  0  0  0
 10 11  2  0  0  0  0
 10 12  1  0  0  0  0
 12 13  2  0  0  0  0
 13 14  1  0  0  0  0
 14 15  1  0  0  0  0
 14 16  2  0  0  0  0
 16 17  1  0  0  0  0
 12 17  1  0  0  0  0
 17 18  1  0  0  0  0
 18 19  2  0  0  0  0
 19 20  1  0  0  0  0
 20 21  2  0  0  0  0
 21 22  1  0  0  0  0
 22 23  2  0  0  0  0
 18 23  1  0  0  0  0
 23 24  1  0  0  0  0
M  END
> <ID>
CPD_4002

$$$$
CPD_4007
  Mrv1822 09091914012D          

 21 22  0  0  0  0            999 V2000
    3.4656   -0.4741    0.0000 C   0  0  0  0  0  0  0  0  0  0  0  0
    3.4656   -1.2991    0.0000 O   0  0  0  0  0  0  0  0  0  0  0  0
    2.7512   -1.7116    0.0000 C   0  0  0  0  0  0  0  0  0  0  0  0
    2.0367   -1.2991    0.0000 O   0  0  0  0  0  0  0  0  0  0  0  0
    2.7512   -2.5366    0.0000 C   0  0  0  0  0  0  0  0  0  0  0  0
    3.4186   -3.0215    0.0000 N   0  0  0  0  0  0  0  0  0  0  0  0
    3.1637   -3.8062    0.0000 N   0  0  0  0  0  0  0  0  0  0  0  0
    2.3387   -3.8062    0.0000 C   0  0  0  0  0  0  0  0  0  0  0  0
    2.0837   -3.0215    0.0000 C   0  0  0  0  0  0  0  0  0  0  0  0
    1.8538   -4.4736    0.0000 C   0  0  0  0  0  0  0  0  0  0  0  0
    2.1893   -5.2273    0.0000 O   0  0  0  0  0  0  0  0  0  0  0  0
    1.0333   -4.3874    0.0000 C   0  0  0  0  0  0  0  0  0  0  0  0
    0.5484   -5.0548    0.0000 O   0  0  0  0  0  0  0  0  0  0  0  0
   -0.2721   -4.9686    0.0000 C   0  0  0  0  0  0  0  0  0  0  0  0
   -0.7571   -5.6360    0.0000 C   0  0  0  0  0  0  0  0  0  0  0  0
   -1.5775   -5.5498    0.0000 C   0  0  0  0  0  0  0  0  0  0  0  0
   -1.9131   -4.7961    0.0000 C   0  0  0  0  0  0  0  0  0  0  0  0
   -2.7336   -4.7098    0.0000 O   0  0  0  0  0  0  0  0  0  0  0  0
   -3.2185   -5.3773    0.0000 C   0  0  0  0  0  0  0  0  0  0  0  0
   -1.4282   -4.1286    0.0000 C   0  0  0  0  0  0  0  0  0  0  0  0
   -0.6077   -4.2149    0.0000 C   0  0  0  0  0  0  0  0  0  0  0  0
  1  2  1  0  0  0  0
  2  3  1  0  0  0  0
  3  4  2  0  0  0  0
  3  5  1  0  0  0  0
  5  6  2  0  0  0  0
  6  7  1  0  0  0  0
  7  8  1  0  0  0  0
  8  9  2  0  0  0  0
  5  9  1  0  0  0  0
  8 10  1  0  0  0  0
 10 11  2  0  0  0  0
 10 12  1  0  0  0  0
 12 13  1  0  0  0  0
 13 14  1  0  0  0  0
 14 15  2  0  0  0  0
 15 16  1  0  0  0  0
 16 17  2  0  0  0  0
 17 18  1  0  0  0  0
 18 19  1  0  0  0  0
 17 20  1  0  0  0  0
 20 21  2  0  0  0  0
 14 21  1  0  0  0  0
M  END
> <ID>
CPD_4007

$$$$
CPD_4012
  Mrv1822 09091914012D          

 26 28  0  0  0  0            999 V2000
   -0.7145   10.8911    0.0000 C   0  0  0  0  0  0  0  0  0  0  0  0
   -0.7145   10.0661    0.0000 O   0  0  0  0  0  0  0  0  0  0  0  0
   -0.0000    9.6536    0.0000 C   0  0  0  0  0  0  0  0  0  0  0  0
    0.7145   10.0661    0.0000 C   0  0  0  0  0  0  0  0  0  0  0  0
    1.4289    9.6536    0.0000 C   0  0  0  0  0  0  0  0  0  0  0  0
    1.4289    8.8286    0.0000 C   0  0  0  0  0  0  0  0  0  0  0  0
    0.7145    8.4161    0.0000 C   0  0  0  0  0  0  0  0  0  0  0  0
   -0.0000    8.8286    0.0000 C   0  0  0  0  0  0  0  0  0  0  0  0
    0.7145    7.5911    0.0000 C   0  0  0  0  0  0  0  0  0  0  0  0
    1.4289    7.1786    0.0000 C   0  0  0  0  0  0  0  0  0  0  0  0
    1.4289    6.3536    0.0000 C   0  0  0  0  0  0  0  0  0  0  0  0
    0.7145    5.9411    0.0000 C   0  0  0  0  0  0  0  0  0  0  0  0
   -0.0000    6.3536    0.0000 C   0  0  0  0  0  0  0  0  0  0  0  0
   -0.0000    7.1786    0.0000 C   0  0  0  0  0  0  0  0  0  0  0  0
    0.7145    5.1161    0.0000 S   0  0  0  0  0  0  0  0  0  0  0  0
   -0.1105    5.1161    0.0000 O   0  0  0  0  0  0  0  0  0  0  0  0
    1.5395    5.1161    0.0000 O   0  0  0  0  0  0  0  0  0  0  0  0
    0.7145    4.2911    0.0000 C   0  0  0  0  0  0  0  0  0  0  0  0
    1.3819    3.8062    0.0000 N   0  0  0  0  0  0  0  0  0  0  0  0
    1.1270    3.0215    0.0000 C   0  0  0  0  0  0  0  0  0  0  0  0
    0.3020    3.0215    0.0000 C   0  0  0  0  0  0  0  0  0  0  0  0
    0.0470    3.8062    0.0000 N   0  0  0  0  0  0  0  0  0  0  0  0
   -0.7376    4.0611    0.0000 C   0  0  0  0  0  0  0  0  0  0  0  0
   -1.5222    4.3160    0.0000 C   0  0  0  0  0  0  0  0  0  0  0  0
   -0.4827    4.8457    0.0000 C   0  0  0  0  0  0  0  0  0  0  0  0
   -0.9925    3.2765    0.0000 C   0  0  0  0  0  0  0  0  0  0  0  0
  1  2  1  0  0  0  0
  2  3  1  0  0  0  0
  3  4  2  0  0  0  0
  4  5  1  0  0  0  0
  5  6  2  0  0  0  0
  6  7  1  0  0  0  0
  7  8  2  0  0  0  0
  3  8  1  0  0  0  0
  7  9  1  0  0  0  0
  9 10  2  0  0  0  0
 10 11  1  0  0  0  0
 11 12  2  0  0  0  0
 12 13  1  0  0  0  0
 13 14  2  0  0  0  0
  9 14  1  0  0  0  0
 12 15  1  0  0  0  0
 15 16  2  0  0  0  0
 15 17  2  0  0  0  0
 15 18  1  0  0  0  0
 18 19  2  0  0  0  0
 19 20  1  0  0  0  0
 20 21  2  0  0  0  0
 21 22  1  0  0  0  0
 18 22  1  0  0  0  0
 22 23  1  0  0  0  0
 23 24  1  0  0  0  0
 23 25  1  0  0  0  0
 23 26  1  0  0  0  0
M  END
> <ID>
CPD_4012

$$$$
CPD_4017
  Mrv1822 09091914012D          

 30 31  0  0  0  0            999 V2000
   -1.4289   -4.9500    0.0000 C   0  0  0  0  0  0  0  0  0  0  0  0
   -0.7145   -4.5375    0.0000 C   0  0  0  0  0  0  0  0  0  0  0  0
   -0.7145   -3.7125    0.0000 C   0  0  0  0  0  0  0  0  0  0  0  0
   -0.0000   -3.3000    0.0000 C   0  0  0  0  0  0  0  0  0  0  0  0
   -0.0000   -2.4750    0.0000 C   0  0  0  0  0  0  0  0  0  0  0  0
    0.7145   -2.0625    0.0000 C   0  0  0  0  0  0  0  0  0  0  0  0
    0.7145   -1.2375    0.0000 S   0  0  0  0  0  0  0  0  0  0  0  0
    1.5395   -1.2375    0.0000 O   0  0  0  0  0  0  0  0  0  0  0  0
   -0.1105   -1.2375    0.0000 O   0  0  0  0  0  0  0  0  0  0  0  0
    0.7145   -0.4125    0.0000 C   0  0  0  0  0  0  0  0  0  0  0  0
   -0.0000    0.0000    0.0000 C   0  0  0  0  0  0  0  0  0  0  0  0
    0.0000    0.8250    0.0000 C   0  0  0  0  0  0  0  0  0  0  0  0
    0.7145    1.2375    0.0000 C   0  0  0  0  0  0  0  0  0  0  0  0
    1.4289    0.8250    0.0000 C   0  0  0  0  0  0  0  0  0  0  0  0
    1.4289    0.0000    0.0000 C   0  0  0  0  0  0  0  0  0  0  0  0
    2.1434   -0.4125    0.0000 C   0  0  0  0  0  0  0  0  0  0  0  0
    2.8579    0.0000    0.0000 N   0  0  0  0  0  0  0  0  0  0  0  0
    3.5724   -0.4125    0.0000 C   0  0  0  0  0  0  0  0  0  0  0  0
    3.5724   -1.2375    0.0000 O   0  0  0  0  0  0  0  0  0  0  0  0
    4.2868    0.0000    0.0000 C   0  0  0  0  0  0  0  0  0  0  0  0
    5.0013   -0.4125    0.0000 C   0  0  0  0  0  0  0  0  0  0  0  0
    5.7158    0.0000    0.0000 C   0  0  0  0  0  0  0  0  0  0  0  0
    5.7158    0.8250    0.0000 O   0  0  0  0  0  0  0  0  0  0  0  0
    6.4302   -0.4125    0.0000 N   0  0  0  0  0  0  0  0  0  0  0  0
    7.1839   -0.0769    0.0000 N   0  0  0  0  0  0  0  0  0  0  0  0
    7.7359   -0.6900    0.0000 C   0  0  0  0  0  0  0  0  0  0  0  0
    8.5564   -0.6038    0.0000 C   0  0  0  0  0  0  0  0  0  0  0  0
    7.3234   -1.4045    0.0000 C   0  0  0  0  0  0  0  0  0  0  0  0
    6.5165   -1.2330    0.0000 C   0  0  0  0  0  0  0  0  0  0  0  0
    5.9034   -1.7850    0.0000 C   0  0  0  0  0  0  0  0  0  0  0  0
  1  2  1  0  0  0  0
  2  3  1  0  0  0  0
  3  4  1  0  0  0  0
  4  5  1  0  0  0  0
  5  6  1  0  0  0  0
  6  7  1  0  0  0  0
  7  8  2  0  0  0  0
  7  9  2  0  0  0  0
  7 10  1  0  0  0  0
 10 11  2  0  0  0  0
 11 12  1  0  0  0  0
 12 13  2  0  0  0  0
 13 14  1  0  0  0  0
 14 15  2  0  0  0  0
 10 15  1  0  0  0  0
 15 16  1  0  0  0  0
 16 17  1  0  0  0  0
 17 18  1  0  0  0  0
 18 19  2  0  0  0  0
 18 20  1  0  0  0  0
 20 21  1  0  0  0  0
 21 22  1  0  0  0  0
 22 23  2  0  0  0  0
 22 24  1  0  0  0  0
 24 25  1  0  0  0  0
 25 26  2  0  0  0  0
 26 27  1  0  0  0  0
 26 28  1  0  0  0  0
 28 29  2  0  0  0  0
 24 29  1  0  0  0  0
 29 30  1  0  0  0  0
M  END
> <ID>
CPD_4017

$$$$
CPD_4022
  Mrv1822 09091914012D          

 29 31  0  0  0  0            999 V2000
    6.3569    1.9354    0.0000 C   0  0  0  0  0  0  0  0  0  0  0  0
    5.6424    1.5229    0.0000 C   0  0  0  0  0  0  0  0  0  0  0  0
    5.6424    0.6979    0.0000 C   0  0  0  0  0  0  0  0  0  0  0  0
    6.3569    0.2854    0.0000 F   0  0  0  0  0  0  0  0  0  0  0  0
    4.9279    0.2854    0.0000 C   0  0  0  0  0  0  0  0  0  0  0  0
    4.2135    0.6979    0.0000 C   0  0  0  0  0  0  0  0  0  0  0  0
    3.4990    0.2854    0.0000 N   0  0  0  0  0  0  0  0  0  0  0  0
    2.7845    0.6979    0.0000 S   0  0  0  0  0  0  0  0  0  0  0  0
    3.1970    1.4124    0.0000 O   0  0  0  0  0  0  0  0  0  0  0  0
    2.3720   -0.0165    0.0000 O   0  0  0  0  0  0  0  0  0  0  0  0
    2.0701    1.1104    0.0000 C   0  0  0  0  0  0  0  0  0  0  0  0
    1.3556    0.6979    0.0000 C   0  0  0  0  0  0  0  0  0  0  0  0
    0.6411    1.1104    0.0000 N   0  0  0  0  0  0  0  0  0  0  0  0
    0.6411    1.9354    0.0000 C   0  0  0  0  0  0  0  0  0  0  0  0
    1.3556    2.3479    0.0000 C   0  0  0  0  0  0  0  0  0  0  0  0
    2.0701    1.9354    0.0000 C   0  0  0  0  0  0  0  0  0  0  0  0
   -0.1435    2.1904    0.0000 N   0  0  0  0  0  0  0  0  0  0  0  0
   -0.6284    1.5229    0.0000 N   0  0  0  0  0  0  0  0  0  0  0  0
   -0.1435    0.8555    0.0000 C   0  0  0  0  0  0  0  0  0  0  0  0
   -0.3984    0.0709    0.0000 S   0  0  0  0  0  0  0  0  0  0  0  0
   -1.1831    0.3258    0.0000 O   0  0  0  0  0  0  0  0  0  0  0  0
    0.3862   -0.1841    0.0000 O   0  0  0  0  0  0  0  0  0  0  0  0
   -0.6534   -0.7137    0.0000 C   0  0  0  0  0  0  0  0  0  0  0  0
   -0.1014   -1.3268    0.0000 C   0  0  0  0  0  0  0  0  0  0  0  0
    0.4507   -1.9399    0.0000 F   0  0  0  0  0  0  0  0  0  0  0  0
   -0.7144   -1.8789    0.0000 F   0  0  0  0  0  0  0  0  0  0  0  0
    0.5117   -0.7748    0.0000 F   0  0  0  0  0  0  0  0  0  0  0  0
    4.2135    1.5229    0.0000 C   0  0  0  0  0  0  0  0  0  0  0  0
    4.9279    1.9354    0.0000 C   0  0  0  0  0  0  0  0  0  0  0  0
  1  2  1  0  0  0  0
  2  3  2  0  0  0  0
  3  4  1  0  0  0  0
  3  5  1  0  0  0  0
  5  6  2  0  0  0  0
  6  7  1  0  0  0  0
  7  8  1  0  0  0  0
  8  9  2  0  0  0  0
  8 10  2  0  0  0  0
  8 11  1  0  0  0  0
 11 12  2  0  0  0  0
 12 13  1  0  0  0  0
 13 14  1  0  0  0  0
 14 15  1  0  0  0  0
 15 16  2  0  0  0  0
 11 16  1  0  0  0  0
 14 17  2  0  0  0  0
 17 18  1  0  0  0  0
 18 19  2  0  0  0  0
 13 19  1  0  0  0  0
 19 20  1  0  0  0  0
 20 21  2  0  0  0  0
 20 22  2  0  0  0  0
 20 23  1  0  0  0  0
 23 24  1  0  0  0  0
 24 25  1  0  0  0  0
 24 26  1  0  0  0  0
 24 27  1  0  0  0  0
  6 28  1  0  0  0  0
 28 29  2  0  0  0  0
  2 29  1  0  0  0  0
M  END
> <ID>
CPD_4022

$$$$
CPD_4027
  Mrv1822 09091914012D          

 34 37  0  0  0  0            999 V2000
    7.0714    3.1729    0.0000 C   0  0  0  0  0  0  0  0  0  0  0  0
    6.3569    2.7604    0.0000 C   0  0  0  0  0  0  0  0  0  0  0  0
    6.3569    1.9354    0.0000 O   0  0  0  0  0  0  0  0  0  0  0  0
    5.6424    1.5229    0.0000 C   0  0  0  0  0  0  0  0  0  0  0  0
    5.6424    0.6979    0.0000 C   0  0  0  0  0  0  0  0  0  0  0  0
    4.9279    0.2854    0.0000 C   0  0  0  0  0  0  0  0  0  0  0  0
    4.2135    0.6979    0.0000 C   0  0  0  0  0  0  0  0  0  0  0  0
    3.4990    0.2854    0.0000 N   0  0  0  0  0  0  0  0  0  0  0  0
    2.7845    0.6979    0.0000 S   0  0  0  0  0  0  0  0  0  0  0  0
    3.1970    1.4124    0.0000 O   0  0  0  0  0  0  0  0  0  0  0  0
    2.3720   -0.0165    0.0000 O   0  0  0  0  0  0  0  0  0  0  0  0
    2.0701    1.1104    0.0000 C   0  0  0  0  0  0  0  0  0  0  0  0
    1.3556    0.6979    0.0000 C   0  0  0  0  0  0  0  0  0  0  0  0
    0.6411    1.1104    0.0000 N   0  0  0  0  0  0  0  0  0  0  0  0
    0.6411    1.9354    0.0000 C   0  0  0  0  0  0  0  0  0  0  0  0
    1.3556    2.3479    0.0000 C   0  0  0  0  0  0  0  0  0  0  0  0
    2.0701    1.9354    0.0000 C   0  0  0  0  0  0  0  0  0  0  0  0
   -0.1435    2.1904    0.0000 N   0  0  0  0  0  0  0  0  0  0  0  0
   -0.6284    1.5229    0.0000 N   0  0  0  0  0  0  0  0  0  0  0  0
   -0.1435    0.8555    0.0000 C   0  0  0  0  0  0  0  0  0  0  0  0
   -0.3984    0.0709    0.0000 S   0  0  0  0  0  0  0  0  0  0  0  0
   -1.1831    0.3258    0.0000 O   0  0  0  0  0  0  0  0  0  0  0  0
    0.3862   -0.1841    0.0000 O   0  0  0  0  0  0  0  0  0  0  0  0
   -0.6534   -0.7137    0.0000 C   0  0  0  0  0  0  0  0  0  0  0  0
   -1.4604   -0.8853    0.0000 C   0  0  0  0  0  0  0  0  0  0  0  0
   -1.7153   -1.6699    0.0000 C   0  0  0  0  0  0  0  0  0  0  0  0
   -2.5223   -1.8414    0.0000 C   0  0  0  0  0  0  0  0  0  0  0  0
   -2.7772   -2.6260    0.0000 F   0  0  0  0  0  0  0  0  0  0  0  0
   -3.0743   -1.2283    0.0000 C   0  0  0  0  0  0  0  0  0  0  0  0
   -2.8194   -0.4437    0.0000 C   0  0  0  0  0  0  0  0  0  0  0  0
   -2.0124   -0.2722    0.0000 C   0  0  0  0  0  0  0  0  0  0  0  0
   -1.7575    0.5124    0.0000 Cl  0  0  0  0  0  0  0  0  0  0  0  0
    4.2135    1.5229    0.0000 C   0  0  0  0  0  0  0  0  0  0  0  0
    4.9279    1.9354    0.0000 C   0  0  0  0  0  0  0  0  0  0  0  0
  1  2  1  0  0  0  0
  2  3  1  0  0  0  0
  3  4  1  0  0  0  0
  4  5  2  0  0  0  0
  5  6  1  0  0  0  0
  6  7  2  0  0  0  0
  7  8  1  0  0  0  0
  8  9  1  0  0  0  0
  9 10  2  0  0  0  0
  9 11  2  0  0  0  0
  9 12  1  0  0  0  0
 12 13  2  0  0  0  0
 13 14  1  0  0  0  0
 14 15  1  0  0  0  0
 15 16  1  0  0  0  0
 16 17  2  0  0  0  0
 12 17  1  0  0  0  0
 15 18  2  0  0  0  0
 18 19  1  0  0  0  0
 19 20  2  0  0  0  0
 14 20  1  0  0  0  0
 20 21  1  0  0  0  0
 21 22  2  0  0  0  0
 21 23  2  0  0  0  0
 21 24  1  0  0  0  0
 24 25  1  0  0  0  0
 25 26  2  0  0  0  0
 26 27  1  0  0  0  0
 27 28  1  0  0  0  0
 27 29  2  0  0  0  0
 29 30  1  0  0  0  0
 30 31  2  0  0  0  0
 25 31  1  0  0  0  0
 31 32  1  0  0  0  0
  7 33  1  0  0  0  0
 33 34  2  0  0  0  0
  4 34  1  0  0  0  0
M  END
> <ID>
CPD_4027

$$$$
CPD_4032
  Mrv1822 09091914012D          

 20 22  0  0  0  0            999 V2000
    3.4935   -2.0596    0.0000 O   0  0  0  0  0  0  0  0  0  0  0  0
    2.7791   -1.6471    0.0000 C   0  0  0  0  0  0  0  0  0  0  0  0
    2.0646   -2.0596    0.0000 C   0  0  0  0  0  0  0  0  0  0  0  0
    1.3501   -1.6471    0.0000 C   0  0  0  0  0  0  0  0  0  0  0  0
    1.3501   -0.8221    0.0000 C   0  0  0  0  0  0  0  0  0  0  0  0
    2.0646   -0.4096    0.0000 C   0  0  0  0  0  0  0  0  0  0  0  0
    2.7791   -0.8221    0.0000 C   0  0  0  0  0  0  0  0  0  0  0  0
    3.4935   -0.4096    0.0000 C   0  0  0  0  0  0  0  0  0  0  0  0
    4.2080   -0.8221    0.0000 N   0  0  0  0  0  0  0  0  0  0  0  0
    4.9225   -0.4096    0.0000 C   0  0  0  0  0  0  0  0  0  0  0  0
    5.6370   -0.8221    0.0000 C   0  0  0  0  0  0  0  0  0  0  0  0
    6.3514   -0.4096    0.0000 C   0  0  0  0  0  0  0  0  0  0  0  0
    6.4377    0.4109    0.0000 C   0  0  0  0  0  0  0  0  0  0  0  0
    7.2446    0.5824    0.0000 N   0  0  0  0  0  0  0  0  0  0  0  0
    7.6571   -0.1320    0.0000 C   0  0  0  0  0  0  0  0  0  0  0  0
    8.4641   -0.3036    0.0000 C   0  0  0  0  0  0  0  0  0  0  0  0
    8.7190   -1.0882    0.0000 C   0  0  0  0  0  0  0  0  0  0  0  0
    8.1670   -1.7013    0.0000 C   0  0  0  0  0  0  0  0  0  0  0  0
    7.3600   -1.5298    0.0000 C   0  0  0  0  0  0  0  0  0  0  0  0
    7.1051   -0.7451    0.0000 C   0  0  0  0  0  0  0  0  0  0  0  0
  1  2  1  0  0  0  0
  2  3  2  0  0  0  0
  3  4  1  0  0  0  0
  4  5  2  0  0  0  0
  5  6  1  0  0  0  0
  6  7  2  0  0  0  0
  2  7  1  0  0  0  0
  7  8  1  0  0  0  0
  8  9  1  0  0  0  0
  9 10  1  0  0  0  0
 10 11  1  0  0  0  0
 11 12  1  0  0  0  0
 12 13  2  0  0  0  0
 13 14  1  0  0  0  0
 14 15  1  0  0  0  0
 15 16  2  0  0  0  0
 16 17  1  0  0  0  0
 17 18  2  0  0  0  0
 18 19  1  0  0  0  0
 19 20  2  0  0  0  0
 12 20  1  0  0  0  0
 15 20  1  0  0  0  0
M  END
> <ID>
CPD_4032

$$$$
CPD_4037
  Mrv1822 09091914012D          

 24 27  0  0  0  0            999 V2000
    6.2102    3.5854    0.0000 O   0  0  0  0  0  0  0  0  0  0  0  0
    5.4957    3.1729    0.0000 C   0  0  0  0  0  0  0  0  0  0  0  0
    5.4957    2.3479    0.0000 C   0  0  0  0  0  0  0  0  0  0  0  0
    4.7812    1.9354    0.0000 C   0  0  0  0  0  0  0  0  0  0  0  0
    4.0668    2.3479    0.0000 C   0  0  0  0  0  0  0  0  0  0  0  0
    4.0668    3.1729    0.0000 C   0  0  0  0  0  0  0  0  0  0  0  0
    4.7812    3.5854    0.0000 C   0  0  0  0  0  0  0  0  0  0  0  0
    3.3523    1.9354    0.0000 N   0  0  0  0  0  0  0  0  0  0  0  0
    3.3523    1.1104    0.0000 C   0  0  0  0  0  0  0  0  0  0  0  0
    4.0668    0.6979    0.0000 S   0  0  0  0  0  0  0  0  0  0  0  0
    2.6378    0.6979    0.0000 N   0  0  0  0  0  0  0  0  0  0  0  0
    1.9233    1.1104    0.0000 C   0  0  0  0  0  0  0  0  0  0  0  0
    1.9233    1.9354    0.0000 C   0  0  0  0  0  0  0  0  0  0  0  0
    1.1387    2.1904    0.0000 N   0  0  0  0  0  0  0  0  0  0  0  0
    0.6538    1.5229    0.0000 C   0  0  0  0  0  0  0  0  0  0  0  0
    1.1387    0.8555    0.0000 C   0  0  0  0  0  0  0  0  0  0  0  0
    0.8838    0.0709    0.0000 C   0  0  0  0  0  0  0  0  0  0  0  0
    1.4358   -0.5422    0.0000 C   0  0  0  0  0  0  0  0  0  0  0  0
    1.1809   -1.3268    0.0000 C   0  0  0  0  0  0  0  0  0  0  0  0
    0.3739   -1.4984    0.0000 C   0  0  0  0  0  0  0  0  0  0  0  0
   -0.1781   -0.8853    0.0000 C   0  0  0  0  0  0  0  0  0  0  0  0
    0.0768   -0.1006    0.0000 C   0  0  0  0  0  0  0  0  0  0  0  0
    2.6378    2.3479    0.0000 C   0  0  0  0  0  0  0  0  0  0  0  0
    2.6378    3.1729    0.0000 O   0  0  0  0  0  0  0  0  0  0  0  0
  1  2  1  0  0  0  0
  2  3  2  0  0  0  0
  3  4  1  0  0  0  0
  4  5  2  0  0  0  0
  5  6  1  0  0  0  0
  6  7  2  0  0  0  0
  2  7  1  0  0  0  0
  5  8  1  0  0  0  0
  8  9  1  0  0  0  0
  9 10  2  0  0  0  0
  9 11  1  0  0  0  0
 11 12  1  0  0  0  0
 12 13  2  0  0  0  0
 13 14  1  0  0  0  0
 14 15  1  0  0  0  0
 15 16  2  0  0  0  0
 12 16  1  0  0  0  0
 16 17  1  0  0  0  0
 17 18  2  0  0  0  0
 18 19  1  0  0  0  0
 19 20  2  0  0  0  0
 20 21  1  0  0  0  0
 21 22  2  0  0  0  0
 17 22  1  0  0  0  0
 13 23  1  0  0  0  0
  8 23  1  0  0  0  0
 23 24  2  0  0  0  0
M  END
> <ID>
CPD_4037

$$$$
CPD_4042
  Mrv1822 09091914012D          

 23 24  0  0  0  0            999 V2000
    2.8579    0.0000    0.0000 C   0  0  0  0  0  0  0  0  0  0  0  0
    2.1434   -0.4125    0.0000 C   0  0  0  0  0  0  0  0  0  0  0  0
    2.1434   -1.2375    0.0000 C   0  0  0  0  0  0  0  0  0  0  0  0
    2.8579   -1.6500    0.0000 C   0  0  0  0  0  0  0  0  0  0  0  0
    2.8579   -2.4750    0.0000 C   0  0  0  0  0  0  0  0  0  0  0  0
    2.1434   -2.8875    0.0000 C   0  0  0  0  0  0  0  0  0  0  0  0
    1.4289   -2.4750    0.0000 C   0  0  0  0  0  0  0  0  0  0  0  0
    0.7145   -2.8875    0.0000 O   0  0  0  0  0  0  0  0  0  0  0  0
    0.0000   -2.4750    0.0000 C   0  0  0  0  0  0  0  0  0  0  0  0
   -0.7145   -2.8875    0.0000 C   0  0  0  0  0  0  0  0  0  0  0  0
   -1.4289   -2.4750    0.0000 C   0  0  0  0  0  0  0  0  0  0  0  0
   -1.4289   -1.6500    0.0000 C   0  0  0  0  0  0  0  0  0  0  0  0
   -2.1434   -1.2375    0.0000 N   0  0  0  0  0  0  0  0  0  0  0  0
   -2.1434   -0.4125    0.0000 C   0  0  0  0  0  0  0  0  0  0  0  0
   -2.8579    0.0000    0.0000 C   0  0  0  0  0  0  0  0  0  0  0  0
   -1.4289    0.0000    0.0000 O   0  0  0  0  0  0  0  0  0  0  0  0
   -0.7145   -1.2375    0.0000 C   0  0  0  0  0  0  0  0  0  0  0  0
    0.0000   -1.6500    0.0000 C   0  0  0  0  0  0  0  0  0  0  0  0
   -2.1434   -2.8875    0.0000 C   0  0  0  0  0  0  0  0  0  0  0  0
   -2.8579   -3.3000    0.0000 F   0  0  0  0  0  0  0  0  0  0  0  0
   -2.5559   -2.1730    0.0000 F   0  0  0  0  0  0  0  0  0  0  0  0
   -1.7309   -3.6020    0.0000 F   0  0  0  0  0  0  0  0  0  0  0  0
    1.4289   -1.6500    0.0000 C   0  0  0  0  0  0  0  0  0  0  0  0
  1  2  1  0  0  0  0
  2  3  1  0  0  0  0
  3  4  2  0  0  0  0
  4  5  1  0  0  0  0
  5  6  2  0  0  0  0
  6  7  1  0  0  0  0
  7  8  1  0  0  0  0
  8  9  1  0  0  0  0
  9 10  2  0  0  0  0
 10 11  1  0  0  0  0
 11 12  2  0  0  0  0
 12 13  1  0  0  0  0
 13 14  1  0  0  0  0
 14 15  1  0  0  0  0
 14 16  2  0  0  0  0
 12 17  1  0  0  0  0
 17 18  2  0  0  0  0
  9 18  1  0  0  0  0
 11 19  1  0  0  0  0
 19 20  1  0  0  0  0
 19 21  1  0  0  0  0
 19 22  1  0  0  0  0
  7 23  2  0  0  0  0
  3 23  1  0  0  0  0
M  END
> <ID>
CPD_4042

$$$$
CPD_4047
  Mrv1822 09091914012D          

 32 35  0  0  0  0            999 V2000
   -5.5784   -6.4137    0.0000 C   0  0  0  0  0  0  0  0  0  0  0  0
   -5.1659   -5.6992    0.0000 C   0  0  0  0  0  0  0  0  0  0  0  0
   -4.3409   -5.6992    0.0000 O   0  0  0  0  0  0  0  0  0  0  0  0
   -5.5784   -4.9848    0.0000 N   0  0  0  0  0  0  0  0  0  0  0  0
   -5.1659   -4.2703    0.0000 C   0  0  0  0  0  0  0  0  0  0  0  0
   -5.5784   -3.5558    0.0000 C   0  0  0  0  0  0  0  0  0  0  0  0
   -5.1659   -2.8414    0.0000 C   0  0  0  0  0  0  0  0  0  0  0  0
   -4.3409   -2.8414    0.0000 C   0  0  0  0  0  0  0  0  0  0  0  0
   -3.9284   -2.1269    0.0000 O   0  0  0  0  0  0  0  0  0  0  0  0
   -3.1034   -2.1269    0.0000 C   0  0  0  0  0  0  0  0  0  0  0  0
   -2.6909   -1.4124    0.0000 C   0  0  0  0  0  0  0  0  0  0  0  0
   -1.8659   -1.4124    0.0000 C   0  0  0  0  0  0  0  0  0  0  0  0
   -1.4534   -2.1269    0.0000 C   0  0  0  0  0  0  0  0  0  0  0  0
   -1.8659   -2.8414    0.0000 C   0  0  0  0  0  0  0  0  0  0  0  0
   -2.6909   -2.8414    0.0000 C   0  0  0  0  0  0  0  0  0  0  0  0
   -1.4534   -0.6979    0.0000 C   0  0  0  0  0  0  0  0  0  0  0  0
   -1.8659    0.0165    0.0000 O   0  0  0  0  0  0  0  0  0  0  0  0
   -0.6284   -0.6979    0.0000 C   0  0  0  0  0  0  0  0  0  0  0  0
   -0.1435   -1.3654    0.0000 C   0  0  0  0  0  0  0  0  0  0  0  0
    0.6411   -1.1104    0.0000 C   0  0  0  0  0  0  0  0  0  0  0  0
    0.6411   -0.2854    0.0000 C   0  0  0  0  0  0  0  0  0  0  0  0
   -0.1435   -0.0305    0.0000 O   0  0  0  0  0  0  0  0  0  0  0  0
    1.3556    0.1271    0.0000 C   0  0  0  0  0  0  0  0  0  0  0  0
    2.0701   -0.2854    0.0000 N   0  0  0  0  0  0  0  0  0  0  0  0
    2.0701   -1.1104    0.0000 C   0  0  0  0  0  0  0  0  0  0  0  0
    1.3556   -1.5229    0.0000 C   0  0  0  0  0  0  0  0  0  0  0  0
   -3.9284   -3.5558    0.0000 C   0  0  0  0  0  0  0  0  0  0  0  0
   -4.3409   -4.2703    0.0000 C   0  0  0  0  0  0  0  0  0  0  0  0
   -6.4034   -3.5558    0.0000 C   0  0  0  0  0  0  0  0  0  0  0  0
   -7.2284   -3.5558    0.0000 F   0  0  0  0  0  0  0  0  0  0  0  0
   -6.4034   -2.7308    0.0000 F   0  0  0  0  0  0  0  0  0  0  0  0
   -6.4034   -4.3808    0.0000 F   0  0  0  0  0  0  0  0  0  0  0  0
  1  2  1  0  0  0  0
  2  3  2  0  0  0  0
  2  4  1  0  0  0  0
  4  5  1  0  0  0  0
  5  6  2  0  0  0  0
  6  7  1  0  0  0  0
  7  8  2  0  0  0  0
  8  9  1  0  0  0  0
  9 10  1  0  0  0  0
 10 11  2  0  0  0  0
 11 12  1  0  0  0  0
 12 13  2  0  0  0  0
 13 14  1  0  0  0  0
 14 15  2  0  0  0  0
 10 15  1  0  0  0  0
 12 16  1  0  0  0  0
 16 17  2  0  0  0  0
 16 18  1  0  0  0  0
 18 19  2  0  0  0  0
 19 20  1  0  0  0  0
 20 21  2  0  0  0  0
 21 22  1  0  0  0  0
 18 22  1  0  0  0  0
 21 23  1  0  0  0  0
 23 24  2  0  0  0  0
 24 25  1  0  0  0  0
 25 26  2  0  0  0  0
 20 26  1  0  0  0  0
  8 27  1  0  0  0  0
 27 28  2  0  0  0  0
  5 28  1  0  0  0  0
  6 29  1  0  0  0  0
 29 30  1  0  0  0  0
 29 31  1  0  0  0  0
 29 32  1  0  0  0  0
M  END
> <ID>
CPD_4047

$$$$
CPD_4052
  Mrv1822 09091914012D          

 31 33  0  0  0  0            999 V2000
   -0.7145   -1.2375    0.0000 C   0  0  0  0  0  0  0  0  0  0  0  0
    0.0000   -1.6500    0.0000 O   0  0  0  0  0  0  0  0  0  0  0  0
    0.0000   -2.4750    0.0000 C   0  0  0  0  0  0  0  0  0  0  0  0
   -0.7145   -2.8875    0.0000 C   0  0  0  0  0  0  0  0  0  0  0  0
   -0.7145   -3.7125    0.0000 C   0  0  0  0  0  0  0  0  0  0  0  0
    0.0000   -4.1250    0.0000 C   0  0  0  0  0  0  0  0  0  0  0  0
    0.7145   -3.7125    0.0000 C   0  0  0  0  0  0  0  0  0  0  0  0
    1.4289   -4.1250    0.0000 C   0  0  0  0  0  0  0  0  0  0  0  0
    2.1434   -4.5375    0.0000 N   0  0  0  0  0  0  0  0  0  0  0  0
    0.7145   -2.8875    0.0000 C   0  0  0  0  0  0  0  0  0  0  0  0
    1.4289   -2.4750    0.0000 C   0  0  0  0  0  0  0  0  0  0  0  0
    2.1434   -2.8875    0.0000 C   0  0  0  0  0  0  0  0  0  0  0  0
    2.8579   -2.4750    0.0000 C   0  0  0  0  0  0  0  0  0  0  0  0
    2.8579   -1.6500    0.0000 C   0  0  0  0  0  0  0  0  0  0  0  0
    2.1434   -1.2375    0.0000 C   0  0  0  0  0  0  0  0  0  0  0  0
    1.4289   -1.6500    0.0000 C   0  0  0  0  0  0  0  0  0  0  0  0
    0.7145   -1.2375    0.0000 O   0  0  0  0  0  0  0  0  0  0  0  0
    0.7145   -0.4125    0.0000 C   0  0  0  0  0  0  0  0  0  0  0  0
    0.0000    0.0000    0.0000 C   0  0  0  0  0  0  0  0  0  0  0  0
    0.0000    0.8250    0.0000 C   0  0  0  0  0  0  0  0  0  0  0  0
    0.7145    1.2375    0.0000 C   0  0  0  0  0  0  0  0  0  0  0  0
    0.7145    2.0625    0.0000 N   0  0  0  0  0  0  0  0  0  0  0  0
    1.4289    2.4750    0.0000 C   0  0  0  0  0  0  0  0  0  0  0  0
    1.4289    3.3000    0.0000 C   0  0  0  0  0  0  0  0  0  0  0  0
    2.1434    2.0625    0.0000 O   0  0  0  0  0  0  0  0  0  0  0  0
    1.4289    0.8250    0.0000 C   0  0  0  0  0  0  0  0  0  0  0  0
    1.4289   -0.0000    0.0000 C   0  0  0  0  0  0  0  0  0  0  0  0
   -0.7145    1.2375    0.0000 C   0  0  0  0  0  0  0  0  0  0  0  0
   -1.4289    1.6500    0.0000 F   0  0  0  0  0  0  0  0  0  0  0  0
   -0.3020    1.9520    0.0000 F   0  0  0  0  0  0  0  0  0  0  0  0
   -1.1270    0.5230    0.0000 F   0  0  0  0  0  0  0  0  0  0  0  0
  1  2  1  0  0  0  0
  2  3  1  0  0  0  0
  3  4  2  0  0  0  0
  4  5  1  0  0  0  0
  5  6  2  0  0  0  0
  6  7  1  0  0  0  0
  7  8  1  0  0  0  0
  8  9  3  0  0  0  0
  7 10  2  0  0  0  0
  3 10  1  0  0  0  0
 10 11  1  0  0  0  0
 11 12  2  0  0  0  0
 12 13  1  0  0  0  0
 13 14  2  0  0  0  0
 14 15  1  0  0  0  0
 15 16  2  0  0  0  0
 11 16  1  0  0  0  0
 16 17  1  0  0  0  0
 17 18  1  0  0  0  0
 18 19  2  0  0  0  0
 19 20  1  0  0  0  0
 20 21  2  0  0  0  0
 21 22  1  0  0  0  0
 22 23  1  0  0  0  0
 23 24  1  0  0  0  0
 23 25  2  0  0  0  0
 21 26  1  0  0  0  0
 26 27  2  0  0  0  0
 18 27  1  0  0  0  0
 20 28  1  0  0  0  0
 28 29  1  0  0  0  0
 28 30  1  0  0  0  0
 28 31  1  0  0  0  0
M  END
> <ID>
CPD_4052

$$$$
CPD_4057
  Mrv1822 09091914012D          

 22 23  0  0  0  0            999 V2000
    1.4289    0.8250    0.0000 C   0  0  0  0  0  0  0  0  0  0  0  0
    1.4289    0.0000    0.0000 C   0  0  0  0  0  0  0  0  0  0  0  0
    0.7145   -0.4125    0.0000 O   0  0  0  0  0  0  0  0  0  0  0  0
    2.1434   -0.4125    0.0000 N   0  0  0  0  0  0  0  0  0  0  0  0
    2.1434   -1.2375    0.0000 C   0  0  0  0  0  0  0  0  0  0  0  0
    2.8579   -1.6500    0.0000 C   0  0  0  0  0  0  0  0  0  0  0  0
    2.8579   -2.4750    0.0000 C   0  0  0  0  0  0  0  0  0  0  0  0
    2.1434   -2.8875    0.0000 C   0  0  0  0  0  0  0  0  0  0  0  0
    2.1434   -3.7125    0.0000 O   0  0  0  0  0  0  0  0  0  0  0  0
    1.4289   -4.1250    0.0000 C   0  0  0  0  0  0  0  0  0  0  0  0
    1.4289   -4.9500    0.0000 C   0  0  0  0  0  0  0  0  0  0  0  0
    0.7145   -5.3625    0.0000 C   0  0  0  0  0  0  0  0  0  0  0  0
    0.7145   -6.1875    0.0000 C   0  0  0  0  0  0  0  0  0  0  0  0
   -0.0000   -4.9500    0.0000 C   0  0  0  0  0  0  0  0  0  0  0  0
   -0.0000   -4.1250    0.0000 C   0  0  0  0  0  0  0  0  0  0  0  0
    0.7145   -3.7125    0.0000 C   0  0  0  0  0  0  0  0  0  0  0  0
    1.4289   -2.4750    0.0000 C   0  0  0  0  0  0  0  0  0  0  0  0
    1.4289   -1.6500    0.0000 C   0  0  0  0  0  0  0  0  0  0  0  0
    3.5724   -1.2375    0.0000 C   0  0  0  0  0  0  0  0  0  0  0  0
    4.2868   -0.8250    0.0000 F   0  0  0  0  0  0  0  0  0  0  0  0
    3.9849   -1.9520    0.0000 F   0  0  0  0  0  0  0  0  0  0  0  0
    3.1599   -0.5230    0.0000 F   0  0  0  0  0  0  0  0  0  0  0  0
  1  2  1  0  0  0  0
  2  3  2  0  0  0  0
  2  4  1  0  0  0  0
  4  5  1  0  0  0  0
  5  6  2  0  0  0  0
  6  7  1  0  0  0  0
  7  8  2  0  0  0  0
  8  9  1  0  0  0  0
  9 10  1  0  0  0  0
 10 11  2  0  0  0  0
 11 12  1  0  0  0  0
 12 13  1  0  0  0  0
 12 14  2  0  0  0  0
 14 15  1  0  0  0  0
 15 16  2  0  0  0  0
 10 16  1  0  0  0  0
  8 17  1  0  0  0  0
 17 18  2  0  0  0  0
  5 18  1  0  0  0  0
  6 19  1  0  0  0  0
 19 20  1  0  0  0  0
 19 21  1  0  0  0  0
 19 22  1  0  0  0  0
M  END
> <ID>
CPD_4057

$$$$
CPD_4062
  Mrv1822 09091914012D          

 34 36  0  0  0  0            999 V2000
    1.4289    0.0000    0.0000 C   0  0  0  0  0  0  0  0  0  0  0  0
    0.7145   -0.4125    0.0000 C   0  0  0  0  0  0  0  0  0  0  0  0
    0.7145   -1.2375    0.0000 O   0  0  0  0  0  0  0  0  0  0  0  0
    0.0000   -1.6500    0.0000 C   0  0  0  0  0  0  0  0  0  0  0  0
   -0.7145   -1.2375    0.0000 O   0  0  0  0  0  0  0  0  0  0  0  0
    0.0000   -2.4750    0.0000 C   0  0  0  0  0  0  0  0  0  0  0  0
   -0.7145   -2.8875    0.0000 C   0  0  0  0  0  0  0  0  0  0  0  0
   -0.7145   -3.7125    0.0000 C   0  0  0  0  0  0  0  0  0  0  0  0
    0.0000   -4.1250    0.0000 C   0  0  0  0  0  0  0  0  0  0  0  0
    0.0000   -4.9500    0.0000 F   0  0  0  0  0  0  0  0  0  0  0  0
    0.7145   -3.7125    0.0000 C   0  0  0  0  0  0  0  0  0  0  0  0
    0.7145   -2.8875    0.0000 C   0  0  0  0  0  0  0  0  0  0  0  0
    1.4289   -2.4750    0.0000 F   0  0  0  0  0  0  0  0  0  0  0  0
    1.4289   -4.1250    0.0000 C   0  0  0  0  0  0  0  0  0  0  0  0
    1.4289   -4.9500    0.0000 C   0  0  0  0  0  0  0  0  0  0  0  0
    2.1434   -5.3625    0.0000 C   0  0  0  0  0  0  0  0  0  0  0  0
    2.8579   -4.9500    0.0000 C   0  0  0  0  0  0  0  0  0  0  0  0
    2.8579   -4.1250    0.0000 C   0  0  0  0  0  0  0  0  0  0  0  0
    2.1434   -3.7125    0.0000 C   0  0  0  0  0  0  0  0  0  0  0  0
    2.1434   -2.8875    0.0000 O   0  0  0  0  0  0  0  0  0  0  0  0
    2.8579   -2.4750    0.0000 C   0  0  0  0  0  0  0  0  0  0  0  0
    2.8579   -1.6500    0.0000 C   0  0  0  0  0  0  0  0  0  0  0  0
    3.5724   -1.2375    0.0000 C   0  0  0  0  0  0  0  0  0  0  0  0
    4.2868   -1.6500    0.0000 C   0  0  0  0  0  0  0  0  0  0  0  0
    5.0013   -1.2375    0.0000 N   0  0  0  0  0  0  0  0  0  0  0  0
    5.7158   -1.6500    0.0000 C   0  0  0  0  0  0  0  0  0  0  0  0
    5.7158   -2.4750    0.0000 C   0  0  0  0  0  0  0  0  0  0  0  0
    6.4302   -1.2375    0.0000 O   0  0  0  0  0  0  0  0  0  0  0  0
    4.2868   -2.4750    0.0000 C   0  0  0  0  0  0  0  0  0  0  0  0
    3.5724   -2.8875    0.0000 C   0  0  0  0  0  0  0  0  0  0  0  0
    3.5724   -0.4125    0.0000 C   0  0  0  0  0  0  0  0  0  0  0  0
    3.5724    0.4125    0.0000 F   0  0  0  0  0  0  0  0  0  0  0  0
    4.3974   -0.4125    0.0000 F   0  0  0  0  0  0  0  0  0  0  0  0
    2.7474   -0.4125    0.0000 F   0  0  0  0  0  0  0  0  0  0  0  0
  1  2  1  0  0  0  0
  2  3  1  0  0  0  0
  3  4  1  0  0  0  0
  4  5  2  0  0  0  0
  4  6  1  0  0  0  0
  6  7  2  0  0  0  0
  7  8  1  0  0  0  0
  8  9  2  0  0  0  0
  9 10  1  0  0  0  0
  9 11  1  0  0  0  0
 11 12  2  0  0  0  0
  6 12  1  0  0  0  0
 12 13  1  0  0  0  0
 11 14  1  0  0  0  0
 14 15  2  0  0  0  0
 15 16  1  0  0  0  0
 16 17  2  0  0  0  0
 17 18  1  0  0  0  0
 18 19  2  0  0  0  0
 14 19  1  0  0  0  0
 19 20  1  0  0  0  0
 20 21  1  0  0  0  0
 21 22  2  0  0  0  0
 22 23  1  0  0  0  0
 23 24  2  0  0  0  0
 24 25  1  0  0  0  0
 25 26  1  0  0  0  0
 26 27  1  0  0  0  0
 26 28  2  0  0  0  0
 24 29  1  0  0  0  0
 29 30  2  0  0  0  0
 21 30  1  0  0  0  0
 23 31  1  0  0  0  0
 31 32  1  0  0  0  0
 31 33  1  0  0  0  0
 31 34  1  0  0  0  0
M  END
> <ID>
CPD_4062

$$$$
CPD_4067
  Mrv1822 09091914012D          

 19 21  0  0  0  0            999 V2000
    0.5273    1.8318    0.0000 O   0  0  0  0  0  0  0  0  0  0  0  0
   -0.2932    1.9180    0.0000 C   0  0  0  0  0  0  0  0  0  0  0  0
   -0.7781    1.2506    0.0000 C   0  0  0  0  0  0  0  0  0  0  0  0
   -0.5232    0.4659    0.0000 N   0  0  0  0  0  0  0  0  0  0  0  0
   -1.1906   -0.0190    0.0000 C   0  0  0  0  0  0  0  0  0  0  0  0
   -1.1906   -0.8440    0.0000 C   0  0  0  0  0  0  0  0  0  0  0  0
   -0.7781   -1.5585    0.0000 C   0  0  0  0  0  0  0  0  0  0  0  0
   -1.6031   -1.5585    0.0000 C   0  0  0  0  0  0  0  0  0  0  0  0
   -1.8580    0.4659    0.0000 C   0  0  0  0  0  0  0  0  0  0  0  0
   -1.6031    1.2506    0.0000 S   0  0  0  0  0  0  0  0  0  0  0  0
   -2.6427    0.2110    0.0000 C   0  0  0  0  0  0  0  0  0  0  0  0
   -2.8142   -0.5960    0.0000 C   0  0  0  0  0  0  0  0  0  0  0  0
   -2.2011   -1.1480    0.0000 F   0  0  0  0  0  0  0  0  0  0  0  0
   -3.5988   -0.8509    0.0000 C   0  0  0  0  0  0  0  0  0  0  0  0
   -4.2119   -0.2989    0.0000 C   0  0  0  0  0  0  0  0  0  0  0  0
   -4.0404    0.5081    0.0000 C   0  0  0  0  0  0  0  0  0  0  0  0
   -4.6535    1.0601    0.0000 Cl  0  0  0  0  0  0  0  0  0  0  0  0
   -3.2557    0.7630    0.0000 C   0  0  0  0  0  0  0  0  0  0  0  0
   -3.0842    1.5700    0.0000 Cl  0  0  0  0  0  0  0  0  0  0  0  0
  1  2  1  0  0  0  0
  2  3  1  0  0  0  0
  3  4  2  0  0  0  0
  4  5  1  0  0  0  0
  5  6  1  0  0  0  0
  6  7  1  0  0  0  0
  7  8  1  0  0  0  0
  6  8  1  0  0  0  0
  5  9  2  0  0  0  0
  9 10  1  0  0  0  0
  3 10  1  0  0  0  0
  9 11  1  0  0  0  0
 11 12  2  0  0  0  0
 12 13  1  0  0  0  0
 12 14  1  0  0  0  0
 14 15  2  0  0  0  0
 15 16  1  0  0  0  0
 16 17  1  0  0  0  0
 16 18  2  0  0  0  0
 11 18  1  0  0  0  0
 18 19  1  0  0  0  0
M  END
> <ID>
CPD_4067

$$$$
CPD_4072
  Mrv1822 09091914012D          

 25 27  0  0  0  0            999 V2000
    0.0000   -2.4750    0.0000 C   0  0  0  0  0  0  0  0  0  0  0  0
    0.7145   -2.8875    0.0000 O   0  0  0  0  0  0  0  0  0  0  0  0
    0.7145   -3.7125    0.0000 C   0  0  0  0  0  0  0  0  0  0  0  0
    1.2978   -4.2959    0.0000 C   0  0  0  0  0  0  0  0  0  0  0  0
    2.1228   -4.2959    0.0000 N   0  0  0  0  0  0  0  0  0  0  0  0
    2.5353   -3.5814    0.0000 C   0  0  0  0  0  0  0  0  0  0  0  0
    3.3603   -3.5814    0.0000 C   0  0  0  0  0  0  0  0  0  0  0  0
    3.7728   -4.2959    0.0000 N   0  0  0  0  0  0  0  0  0  0  0  0
    3.3603   -5.0103    0.0000 C   0  0  0  0  0  0  0  0  0  0  0  0
    2.5353   -5.0103    0.0000 C   0  0  0  0  0  0  0  0  0  0  0  0
    4.5978   -4.2959    0.0000 C   0  0  0  0  0  0  0  0  0  0  0  0
    5.0103   -3.5814    0.0000 C   0  0  0  0  0  0  0  0  0  0  0  0
    5.8353   -3.5814    0.0000 C   0  0  0  0  0  0  0  0  0  0  0  0
    6.2478   -4.2959    0.0000 C   0  0  0  0  0  0  0  0  0  0  0  0
    7.0728   -4.2959    0.0000 Cl  0  0  0  0  0  0  0  0  0  0  0  0
    5.8353   -5.0103    0.0000 C   0  0  0  0  0  0  0  0  0  0  0  0
    5.0103   -5.0103    0.0000 C   0  0  0  0  0  0  0  0  0  0  0  0
    6.2478   -2.8669    0.0000 C   0  0  0  0  0  0  0  0  0  0  0  0
    6.6603   -2.1525    0.0000 C   0  0  0  0  0  0  0  0  0  0  0  0
    6.9623   -3.2794    0.0000 C   0  0  0  0  0  0  0  0  0  0  0  0
    5.5334   -2.4544    0.0000 C   0  0  0  0  0  0  0  0  0  0  0  0
    0.7145   -4.8792    0.0000 C   0  0  0  0  0  0  0  0  0  0  0  0
    0.7145   -5.7042    0.0000 O   0  0  0  0  0  0  0  0  0  0  0  0
    0.1311   -4.2959    0.0000 C   0  0  0  0  0  0  0  0  0  0  0  0
   -0.6939   -4.2959    0.0000 O   0  0  0  0  0  0  0  0  0  0  0  0
  1  2  1  0  0  0  0
  2  3  1  0  0  0  0
  3  4  2  0  0  0  0
  4  5  1  0  0  0  0
  5  6  1  0  0  0  0
  6  7  1  0  0  0  0
  7  8  1  0  0  0  0
  8  9  1  0  0  0  0
  9 10  1  0  0  0  0
  5 10  1  0  0  0  0
  8 11  1  0  0  0  0
 11 12  2  0  0  0  0
 12 13  1  0  0  0  0
 13 14  2  0  0  0  0
 14 15  1  0  0  0  0
 14 16  1  0  0  0  0
 16 17  2  0  0  0  0
 11 17  1  0  0  0  0
 13 18  1  0  0  0  0
 18 19  1  0  0  0  0
 18 20  1  0  0  0  0
 18 21  1  0  0  0  0
  4 22  1  0  0  0  0
 22 23  2  0  0  0  0
 22 24  1  0  0  0  0
  3 24  1  0  0  0  0
 24 25  2  0  0  0  0
M  END
> <ID>
CPD_4072

$$$$
CPD_4077
  Mrv1822 09091914012D          

 30 32  0  0  1  0            999 V2000
    2.8579   -4.9500    0.0000 C   0  0  0  0  0  0  0  0  0  0  0  0
    3.5724   -5.3625    0.0000 C   0  0  0  0  0  0  0  0  0  0  0  0
    4.2868   -4.9500    0.0000 O   0  0  0  0  0  0  0  0  0  0  0  0
    5.0013   -5.3625    0.0000 C   0  0  2  0  0  0  0  0  0  0  0  0
    5.0013   -6.1875    0.0000 C   0  0  0  0  0  0  0  0  0  0  0  0
    5.7158   -4.9500    0.0000 C   0  0  1  0  0  0  0  0  0  0  0  0
    5.7158   -4.1250    0.0000 N   0  0  0  0  0  0  0  0  0  0  0  0
    6.4302   -5.3625    0.0000 C   0  0  0  0  0  0  0  0  0  0  0  0
    6.4302   -6.1875    0.0000 O   0  0  0  0  0  0  0  0  0  0  0  0
    7.1447   -4.9500    0.0000 C   0  0  0  0  0  0  0  0  0  0  0  0
    7.1447   -4.1250    0.0000 C   0  0  0  0  0  0  0  0  0  0  0  0
    6.4302   -3.7125    0.0000 Cl  0  0  0  0  0  0  0  0  0  0  0  0
    7.8592   -3.7125    0.0000 C   0  0  0  0  0  0  0  0  0  0  0  0
    8.5737   -4.1250    0.0000 C   0  0  0  0  0  0  0  0  0  0  0  0
    8.5737   -4.9500    0.0000 C   0  0  0  0  0  0  0  0  0  0  0  0
    7.8592   -5.3625    0.0000 C   0  0  0  0  0  0  0  0  0  0  0  0
    9.2881   -5.3625    0.0000 N   0  0  0  0  0  0  0  0  0  0  0  0
   10.0026   -4.9500    0.0000 C   0  0  0  0  0  0  0  0  0  0  0  0
   10.7171   -5.3625    0.0000 C   0  0  0  0  0  0  0  0  0  0  0  0
   10.7171   -6.1875    0.0000 N   0  0  0  0  0  0  0  0  0  0  0  0
   10.0026   -6.6000    0.0000 C   0  0  0  0  0  0  0  0  0  0  0  0
    9.2881   -6.1875    0.0000 C   0  0  0  0  0  0  0  0  0  0  0  0
   11.4315   -6.6000    0.0000 C   0  0  0  0  0  0  0  0  0  0  0  0
   12.2284   -6.3865    0.0000 C   0  0  0  0  0  0  0  0  0  0  0  0
   12.6409   -5.6720    0.0000 O   0  0  0  0  0  0  0  0  0  0  0  0
   12.2284   -4.9575    0.0000 C   0  0  0  0  0  0  0  0  0  0  0  0
   12.4419   -7.1834    0.0000 C   0  0  0  0  0  0  0  0  0  0  0  0
   13.1564   -7.5959    0.0000 O   0  0  0  0  0  0  0  0  0  0  0  0
   11.6451   -7.3969    0.0000 C   0  0  0  0  0  0  0  0  0  0  0  0
   11.2326   -8.1114    0.0000 O   0  0  0  0  0  0  0  0  0  0  0  0
  1  2  1  0  0  0  0
  2  3  1  0  0  0  0
  4  3  1  0  0  0  0
  4  5  1  1  0  0  0
  4  6  1  0  0  0  0
  6  7  1  1  0  0  0
  6  8  1  0  0  0  0
  8  9  2  0  0  0  0
  8 10  1  0  0  0  0
 10 11  2  0  0  0  0
 11 12  1  0  0  0  0
 11 13  1  0  0  0  0
 13 14  2  0  0  0  0
 14 15  1  0  0  0  0
 15 16  2  0  0  0  0
 10 16  1  0  0  0  0
 15 17  1  0  0  0  0
 17 18  1  0  0  0  0
 18 19  1  0  0  0  0
 19 20  1  0  0  0  0
 20 21  1  0  0  0  0
 21 22  1  0  0  0  0
 17 22  1  0  0  0  0
 20 23  1  0  0  0  0
 23 24  2  0  0  0  0
 24 25  1  0  0  0  0
 25 26  1  0  0  0  0
 24 27  1  0  0  0  0
 27 28  2  0  0  0  0
 27 29  1  0  0  0  0
 23 29  1  0  0  0  0
 29 30  2  0  0  0  0
M  END
> <ID>
CPD_4077

$$$$
CPD_4082
  Mrv1822 09091914012D          

 32 35  0  0  1  0            999 V2000
   -4.0776   -2.5958    0.0000 C   0  0  0  0  0  0  0  0  0  0  0  0
   -3.3631   -3.0083    0.0000 O   0  0  0  0  0  0  0  0  0  0  0  0
   -3.3631   -3.8333    0.0000 C   0  0  0  0  0  0  0  0  0  0  0  0
   -2.7797   -4.4167    0.0000 C   0  0  0  0  0  0  0  0  0  0  0  0
   -1.9547   -4.4167    0.0000 N   0  0  0  0  0  0  0  0  0  0  0  0
   -1.5422   -3.7022    0.0000 C   0  0  0  0  0  0  0  0  0  0  0  0
   -0.7172   -3.7022    0.0000 C   0  0  0  0  0  0  0  0  0  0  0  0
   -0.3047   -4.4167    0.0000 N   0  0  0  0  0  0  0  0  0  0  0  0
   -0.7172   -5.1312    0.0000 C   0  0  0  0  0  0  0  0  0  0  0  0
   -1.5422   -5.1312    0.0000 C   0  0  0  0  0  0  0  0  0  0  0  0
    0.5203   -4.4167    0.0000 C   0  0  0  0  0  0  0  0  0  0  0  0
    0.9328   -3.7022    0.0000 C   0  0  0  0  0  0  0  0  0  0  0  0
    1.7578   -3.7022    0.0000 C   0  0  0  0  0  0  0  0  0  0  0  0
    2.1703   -2.9877    0.0000 C   0  0  0  0  0  0  0  0  0  0  0  0
    1.7578   -2.2733    0.0000 O   0  0  0  0  0  0  0  0  0  0  0  0
    2.1703   -1.5588    0.0000 C   0  0  2  0  0  0  0  0  0  0  0  0
    1.7578   -0.8443    0.0000 C   0  0  0  0  0  0  0  0  0  0  0  0
    0.9328   -0.8443    0.0000 O   0  0  0  0  0  0  0  0  0  0  0  0
    2.9953   -1.5588    0.0000 C   0  0  1  0  0  0  0  0  0  0  0  0
    3.4078   -0.8443    0.0000 O   0  0  0  0  0  0  0  0  0  0  0  0
    3.4078   -2.2733    0.0000 C   0  0  2  0  0  0  0  0  0  0  0  0
    4.2328   -2.2733    0.0000 O   0  0  0  0  0  0  0  0  0  0  0  0
    2.9953   -2.9877    0.0000 C   0  0  2  0  0  0  0  0  0  0  0  0
    3.4078   -3.7022    0.0000 N   0  0  0  0  0  0  0  0  0  0  0  0
    2.1703   -4.4167    0.0000 C   0  0  0  0  0  0  0  0  0  0  0  0
    2.9953   -4.4167    0.0000 Cl  0  0  0  0  0  0  0  0  0  0  0  0
    1.7578   -5.1312    0.0000 C   0  0  0  0  0  0  0  0  0  0  0  0
    0.9328   -5.1312    0.0000 C   0  0  0  0  0  0  0  0  0  0  0  0
   -3.3631   -5.0000    0.0000 C   0  0  0  0  0  0  0  0  0  0  0  0
   -3.3631   -5.8250    0.0000 O   0  0  0  0  0  0  0  0  0  0  0  0
   -3.9465   -4.4167    0.0000 C   0  0  0  0  0  0  0  0  0  0  0  0
   -4.7715   -4.4167    0.0000 O   0  0  0  0  0  0  0  0  0  0  0  0
  1  2  1  0  0  0  0
  2  3  1  0  0  0  0
  3  4  2  0  0  0  0
  4  5  1  0  0  0  0
  5  6  1  0  0  0  0
  6  7  1  0  0  0  0
  7  8  1  0  0  0  0
  8  9  1  0  0  0  0
  9 10  1  0  0  0  0
  5 10  1  0  0  0  0
  8 11  1  0  0  0  0
 11 12  2  0  0  0  0
 12 13  1  0  0  0  0
 13 14  1  0  0  0  0
 14 15  1  0  0  0  0
 16 15  1  0  0  0  0
 16 17  1  6  0  0  0
 17 18  1  0  0  0  0
 19 16  1  0  0  0  0
 19 20  1  1  0  0  0
 19 21  1  0  0  0  0
 21 22  1  6  0  0  0
 21 23  1  0  0  0  0
 23 14  1  0  0  0  0
 23 24  1  6  0  0  0
 13 25  2  0  0  0  0
 25 26  1  0  0  0  0
 25 27  1  0  0  0  0
 27 28  2  0  0  0  0
 11 28  1  0  0  0  0
  4 29  1  0  0  0  0
 29 30  2  0  0  0  0
 29 31  1  0  0  0  0
  3 31  1  0  0  0  0
 31 32  2  0  0  0  0
M  END
> <ID>
CPD_4082

$$$$
CPD_4087
  Mrv1822 09091914012D          

 31 34  0  0  0  0            999 V2000
   -1.9341   -3.8333    0.0000 C   0  0  0  0  0  0  0  0  0  0  0  0
   -1.2197   -4.2458    0.0000 O   0  0  0  0  0  0  0  0  0  0  0  0
   -1.2197   -5.0708    0.0000 C   0  0  0  0  0  0  0  0  0  0  0  0
   -0.6363   -5.6542    0.0000 C   0  0  0  0  0  0  0  0  0  0  0  0
    0.1887   -5.6542    0.0000 N   0  0  0  0  0  0  0  0  0  0  0  0
    0.6012   -4.9397    0.0000 C   0  0  0  0  0  0  0  0  0  0  0  0
    1.4262   -4.9397    0.0000 C   0  0  0  0  0  0  0  0  0  0  0  0
    1.8387   -5.6542    0.0000 N   0  0  0  0  0  0  0  0  0  0  0  0
    1.4262   -6.3687    0.0000 C   0  0  0  0  0  0  0  0  0  0  0  0
    0.6012   -6.3687    0.0000 C   0  0  0  0  0  0  0  0  0  0  0  0
    2.6637   -5.6542    0.0000 C   0  0  0  0  0  0  0  0  0  0  0  0
    3.0762   -4.9397    0.0000 C   0  0  0  0  0  0  0  0  0  0  0  0
    2.6637   -4.2252    0.0000 C   0  0  0  0  0  0  0  0  0  0  0  0
    3.0762   -3.5108    0.0000 C   0  0  0  0  0  0  0  0  0  0  0  0
    2.6637   -2.7963    0.0000 N   0  0  0  0  0  0  0  0  0  0  0  0
    3.0762   -2.0818    0.0000 C   0  0  0  0  0  0  0  0  0  0  0  0
    2.6637   -1.3674    0.0000 C   0  0  0  0  0  0  0  0  0  0  0  0
    1.8387   -1.3674    0.0000 O   0  0  0  0  0  0  0  0  0  0  0  0
    3.0762   -0.6529    0.0000 C   0  0  0  0  0  0  0  0  0  0  0  0
    3.9012   -0.6529    0.0000 C   0  0  0  0  0  0  0  0  0  0  0  0
    4.3137   -1.3674    0.0000 C   0  0  0  0  0  0  0  0  0  0  0  0
    3.9012   -2.0818    0.0000 C   0  0  0  0  0  0  0  0  0  0  0  0
    3.9012   -4.9397    0.0000 C   0  0  0  0  0  0  0  0  0  0  0  0
    4.3137   -5.6542    0.0000 C   0  0  0  0  0  0  0  0  0  0  0  0
    5.1387   -5.6542    0.0000 Cl  0  0  0  0  0  0  0  0  0  0  0  0
    3.9012   -6.3687    0.0000 C   0  0  0  0  0  0  0  0  0  0  0  0
    3.0762   -6.3687    0.0000 C   0  0  0  0  0  0  0  0  0  0  0  0
   -1.2197   -6.2375    0.0000 C   0  0  0  0  0  0  0  0  0  0  0  0
   -1.2197   -7.0625    0.0000 O   0  0  0  0  0  0  0  0  0  0  0  0
   -1.8030   -5.6542    0.0000 C   0  0  0  0  0  0  0  0  0  0  0  0
   -2.6280   -5.6542    0.0000 O   0  0  0  0  0  0  0  0  0  0  0  0
  1  2  1  0  0  0  0
  2  3  1  0  0  0  0
  3  4  2  0  0  0  0
  4  5  1  0  0  0  0
  5  6  1  0  0  0  0
  6  7  1  0  0  0  0
  7  8  1  0  0  0  0
  8  9  1  0  0  0  0
  9 10  1  0  0  0  0
  5 10  1  0  0  0  0
  8 11  1  0  0  0  0
 11 12  2  0  0  0  0
 12 13  1  0  0  0  0
 13 14  1  0  0  0  0
 14 15  1  0  0  0  0
 15 16  1  0  0  0  0
 16 17  2  0  0  0  0
 17 18  1  0  0  0  0
 17 19  1  0  0  0  0
 19 20  2  0  0  0  0
 20 21  1  0  0  0  0
 21 22  2  0  0  0  0
 16 22  1  0  0  0  0
 12 23  1  0  0  0  0
 23 24  2  0  0  0  0
 24 25  1  0  0  0  0
 24 26  1  0  0  0  0
 26 27  2  0  0  0  0
 11 27  1  0  0  0  0
  4 28  1  0  0  0  0
 28 29  2  0  0  0  0
 28 30  1  0  0  0  0
  3 30  1  0  0  0  0
 30 31  2  0  0  0  0
M  END
> <ID>
CPD_4087

$$$$
CPD_4092
  Mrv1822 09091914012D          

 34 37  0  0  0  0            999 V2000
   -2.8579    2.4750    0.0000 C   0  0  0  0  0  0  0  0  0  0  0  0
   -2.1434    2.0625    0.0000 N   0  0  0  0  0  0  0  0  0  0  0  0
   -2.1434    1.2375    0.0000 C   0  0  0  0  0  0  0  0  0  0  0  0
   -1.4289    0.8250    0.0000 C   0  0  0  0  0  0  0  0  0  0  0  0
   -1.4289    0.0000    0.0000 C   0  0  0  0  0  0  0  0  0  0  0  0
   -2.1434   -0.4125    0.0000 C   0  0  0  0  0  0  0  0  0  0  0  0
   -2.8579    0.0000    0.0000 C   0  0  0  0  0  0  0  0  0  0  0  0
   -2.8579    0.8250    0.0000 C   0  0  0  0  0  0  0  0  0  0  0  0
   -3.5724    1.2375    0.0000 N   0  0  0  0  0  0  0  0  0  0  0  0
   -0.7145   -0.4125    0.0000 C   0  0  0  0  0  0  0  0  0  0  0  0
   -0.7145   -1.2375    0.0000 O   0  0  0  0  0  0  0  0  0  0  0  0
    0.0000   -0.0000    0.0000 C   0  0  0  0  0  0  0  0  0  0  0  0
    0.0000    0.8250    0.0000 C   0  0  0  0  0  0  0  0  0  0  0  0
    0.7145    1.2375    0.0000 C   0  0  0  0  0  0  0  0  0  0  0  0
    1.4289    0.8250    0.0000 C   0  0  0  0  0  0  0  0  0  0  0  0
    1.4289   -0.0000    0.0000 C   0  0  0  0  0  0  0  0  0  0  0  0
    0.7145   -0.4125    0.0000 C   0  0  0  0  0  0  0  0  0  0  0  0
    0.7145   -1.2375    0.0000 C   0  0  0  0  0  0  0  0  0  0  0  0
    1.3819   -1.7224    0.0000 C   0  0  0  0  0  0  0  0  0  0  0  0
    2.1665   -1.4675    0.0000 S   0  0  0  0  0  0  0  0  0  0  0  0
    2.7796   -2.0195    0.0000 C   0  0  0  0  0  0  0  0  0  0  0  0
    3.3927   -2.5715    0.0000 N   0  0  0  0  0  0  0  0  0  0  0  0
    1.1270   -2.5070    0.0000 C   0  0  0  0  0  0  0  0  0  0  0  0
    1.6119   -3.1745    0.0000 S   0  0  0  0  0  0  0  0  0  0  0  0
    1.2763   -3.9282    0.0000 C   0  0  0  0  0  0  0  0  0  0  0  0
    0.9408   -4.6818    0.0000 N   0  0  0  0  0  0  0  0  0  0  0  0
    0.3020   -2.5070    0.0000 C   0  0  0  0  0  0  0  0  0  0  0  0
    0.0470   -1.7224    0.0000 N   0  0  0  0  0  0  0  0  0  0  0  0
   -0.1830   -3.1745    0.0000 C   0  0  0  0  0  0  0  0  0  0  0  0
    0.1526   -3.9282    0.0000 C   0  0  0  0  0  0  0  0  0  0  0  0
   -0.3323   -4.5956    0.0000 C   0  0  0  0  0  0  0  0  0  0  0  0
   -1.1528   -4.5094    0.0000 C   0  0  0  0  0  0  0  0  0  0  0  0
   -1.4884   -3.7557    0.0000 C   0  0  0  0  0  0  0  0  0  0  0  0
   -1.0034   -3.0882    0.0000 C   0  0  0  0  0  0  0  0  0  0  0  0
  1  2  1  0  0  0  0
  2  3  1  0  0  0  0
  3  4  2  0  0  0  0
  4  5  1  0  0  0  0
  5  6  2  0  0  0  0
  6  7  1  0  0  0  0
  7  8  2  0  0  0  0
  3  8  1  0  0  0  0
  8  9  1  0  0  0  0
  5 10  1  0  0  0  0
 10 11  2  0  0  0  0
 10 12  1  0  0  0  0
 12 13  2  0  0  0  0
 13 14  1  0  0  0  0
 14 15  2  0  0  0  0
 15 16  1  0  0  0  0
 16 17  2  0  0  0  0
 12 17  1  0  0  0  0
 17 18  1  0  0  0  0
 18 19  2  0  0  0  0
 19 20  1  0  0  0  0
 20 21  1  0  0  0  0
 21 22  3  0  0  0  0
 19 23  1  0  0  0  0
 23 24  1  0  0  0  0
 24 25  1  0  0  0  0
 25 26  3  0  0  0  0
 23 27  2  0  0  0  0
 27 28  1  0  0  0  0
 18 28  1  0  0  0  0
 27 29  1  0  0  0  0
 29 30  2  0  0  0  0
 30 31  1  0  0  0  0
 31 32  2  0  0  0  0
 32 33  1  0  0  0  0
 33 34  2  0  0  0  0
 29 34  1  0  0  0  0
M  END
> <ID>
CPD_4092

$$$$
CPD_4097
  Mrv1822 09091914012D          

 26 28  0  0  0  0            999 V2000
    0.0000    2.4750    0.0000 C   0  0  0  0  0  0  0  0  0  0  0  0
    0.7145    2.0625    0.0000 C   0  0  0  0  0  0  0  0  0  0  0  0
    1.4289    2.4750    0.0000 O   0  0  0  0  0  0  0  0  0  0  0  0
    0.7145    1.2375    0.0000 C   0  0  0  0  0  0  0  0  0  0  0  0
    1.4289    0.8250    0.0000 C   0  0  0  0  0  0  0  0  0  0  0  0
    1.4289   -0.0000    0.0000 C   0  0  0  0  0  0  0  0  0  0  0  0
    0.7145   -0.4125    0.0000 C   0  0  0  0  0  0  0  0  0  0  0  0
    0.0000    0.0000    0.0000 C   0  0  0  0  0  0  0  0  0  0  0  0
    0.0000    0.8250    0.0000 C   0  0  0  0  0  0  0  0  0  0  0  0
    0.7145   -1.2375    0.0000 C   0  0  0  0  0  0  0  0  0  0  0  0
    1.3819   -1.7224    0.0000 C   0  0  0  0  0  0  0  0  0  0  0  0
    2.1665   -1.4675    0.0000 S   0  0  0  0  0  0  0  0  0  0  0  0
    2.7796   -2.0195    0.0000 C   0  0  0  0  0  0  0  0  0  0  0  0
    3.3927   -2.5715    0.0000 N   0  0  0  0  0  0  0  0  0  0  0  0
    1.1270   -2.5070    0.0000 C   0  0  0  0  0  0  0  0  0  0  0  0
    1.6119   -3.1745    0.0000 S   0  0  0  0  0  0  0  0  0  0  0  0
    1.2763   -3.9282    0.0000 C   0  0  0  0  0  0  0  0  0  0  0  0
    0.9408   -4.6818    0.0000 N   0  0  0  0  0  0  0  0  0  0  0  0
    0.3020   -2.5070    0.0000 C   0  0  0  0  0  0  0  0  0  0  0  0
    0.0470   -1.7224    0.0000 N   0  0  0  0  0  0  0  0  0  0  0  0
   -0.1830   -3.1745    0.0000 C   0  0  0  0  0  0  0  0  0  0  0  0
    0.1526   -3.9282    0.0000 C   0  0  0  0  0  0  0  0  0  0  0  0
   -0.3323   -4.5956    0.0000 C   0  0  0  0  0  0  0  0  0  0  0  0
   -1.1528   -4.5094    0.0000 C   0  0  0  0  0  0  0  0  0  0  0  0
   -1.4884   -3.7557    0.0000 C   0  0  0  0  0  0  0  0  0  0  0  0
   -1.0034   -3.0882    0.0000 C   0  0  0  0  0  0  0  0  0  0  0  0
  1  2  1  0  0  0  0
  2  3  2  0  0  0  0
  2  4  1  0  0  0  0
  4  5  2  0  0  0  0
  5  6  1  0  0  0  0
  6  7  2  0  0  0  0
  7  8  1  0  0  0  0
  8  9  2  0  0  0  0
  4  9  1  0  0  0  0
  7 10  1  0  0  0  0
 10 11  2  0  0  0  0
 11 12  1  0  0  0  0
 12 13  1  0  0  0  0
 13 14  3  0  0  0  0
 11 15  1  0  0  0  0
 15 16  1  0  0  0  0
 16 17  1  0  0  0  0
 17 18  3  0  0  0  0
 15 19  2  0  0  0  0
 19 20  1  0  0  0  0
 10 20  1  0  0  0  0
 19 21  1  0  0  0  0
 21 22  2  0  0  0  0
 22 23  1  0  0  0  0
 23 24  2  0  0  0  0
 24 25  1  0  0  0  0
 25 26  2  0  0  0  0
 21 26  1  0  0  0  0
M  END
> <ID>
CPD_4097

$$$$
CPD_4102
  Mrv1822 09091914012D          

 35 39  0  0  1  0            999 V2000
    4.0145   -3.8743    0.0000 N   0  0  0  0  0  0  0  0  0  0  0  0
    3.6020   -3.1599    0.0000 C   0  0  0  0  0  0  0  0  0  0  0  0
    2.7770   -3.1599    0.0000 C   0  0  2  0  0  0  0  0  0  0  0  0
    2.3645   -3.8743    0.0000 O   0  0  0  0  0  0  0  0  0  0  0  0
    2.3645   -2.4454    0.0000 C   0  0  0  0  0  0  0  0  0  0  0  0
    1.5395   -2.4454    0.0000 N   0  0  0  0  0  0  0  0  0  0  0  0
    1.1270   -1.7309    0.0000 C   0  0  0  0  0  0  0  0  0  0  0  0
    0.3020   -1.7309    0.0000 O   0  0  0  0  0  0  0  0  0  0  0  0
    1.5395   -1.0164    0.0000 C   0  0  0  0  0  0  0  0  0  0  0  0
    2.3645   -1.0164    0.0000 N   0  0  0  0  0  0  0  0  0  0  0  0
    2.7770   -0.3020    0.0000 C   0  0  0  0  0  0  0  0  0  0  0  0
    2.3645    0.4125    0.0000 C   0  0  0  0  0  0  0  0  0  0  0  0
    2.7770    1.1270    0.0000 C   0  0  0  0  0  0  0  0  0  0  0  0
    3.6020    1.1270    0.0000 C   0  0  0  0  0  0  0  0  0  0  0  0
    4.0145    0.4125    0.0000 C   0  0  0  0  0  0  0  0  0  0  0  0
    3.6020   -0.3020    0.0000 C   0  0  0  0  0  0  0  0  0  0  0  0
    1.5395    0.4125    0.0000 C   0  0  0  0  0  0  0  0  0  0  0  0
    1.1270   -0.3020    0.0000 C   0  0  0  0  0  0  0  0  0  0  0  0
    0.3020   -0.3020    0.0000 C   0  0  0  0  0  0  0  0  0  0  0  0
   -0.1105    0.4125    0.0000 C   0  0  0  0  0  0  0  0  0  0  0  0
    0.3020    1.1270    0.0000 C   0  0  0  0  0  0  0  0  0  0  0  0
    1.1270    1.1270    0.0000 C   0  0  0  0  0  0  0  0  0  0  0  0
    1.1270   -3.1599    0.0000 C   0  0  0  0  0  0  0  0  0  0  0  0
    1.5395   -3.8743    0.0000 C   0  0  0  0  0  0  0  0  0  0  0  0
    1.1270   -4.5888    0.0000 C   0  0  0  0  0  0  0  0  0  0  0  0
    0.3020   -4.5888    0.0000 C   0  0  0  0  0  0  0  0  0  0  0  0
   -0.1105   -3.8743    0.0000 C   0  0  0  0  0  0  0  0  0  0  0  0
    0.3020   -3.1599    0.0000 C   0  0  0  0  0  0  0  0  0  0  0  0
   -0.1105   -5.3033    0.0000 N   0  0  0  0  0  0  0  0  0  0  0  0
    0.3020   -6.0177    0.0000 C   0  0  0  0  0  0  0  0  0  0  0  0
   -0.1105   -6.7322    0.0000 C   0  0  0  0  0  0  0  0  0  0  0  0
   -0.9355   -6.7322    0.0000 O   0  0  0  0  0  0  0  0  0  0  0  0
   -1.3480   -6.0177    0.0000 C   0  0  0  0  0  0  0  0  0  0  0  0
   -0.9355   -5.3033    0.0000 C   0  0  0  0  0  0  0  0  0  0  0  0
   -1.3480   -4.5888    0.0000 O   0  0  0  0  0  0  0  0  0  0  0  0
  1  2  1  0  0  0  0
  3  2  1  0  0  0  0
  3  4  1  6  0  0  0
  3  5  1  0  0  0  0
  5  6  1  0  0  0  0
  6  7  1  0  0  0  0
  7  8  2  0  0  0  0
  7  9  1  0  0  0  0
  9 10  2  0  0  0  0
 10 11  1  0  0  0  0
 11 12  2  0  0  0  0
 12 13  1  0  0  0  0
 13 14  2  0  0  0  0
 14 15  1  0  0  0  0
 15 16  2  0  0  0  0
 11 16  1  0  0  0  0
 12 17  1  0  0  0  0
 17 18  2  0  0  0  0
  9 18  1  0  0  0  0
 18 19  1  0  0  0  0
 19 20  1  0  0  0  0
 20 21  1  0  0  0  0
 21 22  1  0  0  0  0
 17 22  1  0  0  0  0
  6 23  1  0  0  0  0
 23 24  2  0  0  0  0
 24 25  1  0  0  0  0
 25 26  2  0  0  0  0
 26 27  1  0  0  0  0
 27 28  2  0  0  0  0
 23 28  1  0  0  0  0
 26 29  1  0  0  0  0
 29 30  1  0  0  0  0
 30 31  1  0  0  0  0
 31 32  1  0  0  0  0
 32 33  1  0  0  0  0
 33 34  1  0  0  0  0
 29 34  1  0  0  0  0
 34 35  2  0  0  0  0
M  END
> <ID>
CPD_4102

$$$$
CPD_4107
  Mrv1822 09091914012D          

 21 24  0  0  0  0            999 V2000
    4.0145    1.8414    0.0000 C   0  0  0  0  0  0  0  0  0  0  0  0
    4.8395    1.8414    0.0000 C   0  0  0  0  0  0  0  0  0  0  0  0
    5.2520    2.5559    0.0000 C   0  0  0  0  0  0  0  0  0  0  0  0
    6.0770    2.5559    0.0000 C   0  0  0  0  0  0  0  0  0  0  0  0
    6.4895    1.8414    0.0000 C   0  0  0  0  0  0  0  0  0  0  0  0
    6.0770    1.1270    0.0000 C   0  0  0  0  0  0  0  0  0  0  0  0
    5.2520    1.1270    0.0000 C   0  0  0  0  0  0  0  0  0  0  0  0
    3.6020    1.1270    0.0000 C   0  0  0  0  0  0  0  0  0  0  0  0
    4.0145    0.4125    0.0000 C   0  0  0  0  0  0  0  0  0  0  0  0
    3.6020   -0.3020    0.0000 C   0  0  0  0  0  0  0  0  0  0  0  0
    2.7770   -0.3020    0.0000 C   0  0  0  0  0  0  0  0  0  0  0  0
    2.3645    0.4125    0.0000 C   0  0  0  0  0  0  0  0  0  0  0  0
    2.7770    1.1270    0.0000 C   0  0  0  0  0  0  0  0  0  0  0  0
    2.3645    1.8414    0.0000 N   0  0  0  0  0  0  0  0  0  0  0  0
    1.5395    1.8414    0.0000 C   0  0  0  0  0  0  0  0  0  0  0  0
    1.1270    1.1270    0.0000 C   0  0  0  0  0  0  0  0  0  0  0  0
    1.5395    0.4125    0.0000 C   0  0  0  0  0  0  0  0  0  0  0  0
    1.1270   -0.3020    0.0000 C   0  0  0  0  0  0  0  0  0  0  0  0
    0.3020   -0.3020    0.0000 C   0  0  0  0  0  0  0  0  0  0  0  0
   -0.1105    0.4125    0.0000 C   0  0  0  0  0  0  0  0  0  0  0  0
    0.3020    1.1270    0.0000 C   0  0  0  0  0  0  0  0  0  0  0  0
  1  2  1  0  0  0  0
  2  3  2  0  0  0  0
  3  4  1  0  0  0  0
  4  5  2  0  0  0  0
  5  6  1  0  0  0  0
  6  7  2  0  0  0  0
  2  7  1  0  0  0  0
  1  8  1  0  0  0  0
  8  9  2  0  0  0  0
  9 10  1  0  0  0  0
 10 11  2  0  0  0  0
 11 12  1  0  0  0  0
 12 13  2  0  0  0  0
  8 13  1  0  0  0  0
 13 14  1  0  0  0  0
 14 15  2  0  0  0  0
 15 16  1  0  0  0  0
 16 17  2  0  0  0  0
 12 17  1  0  0  0  0
 17 18  1  0  0  0  0
 18 19  1  0  0  0  0
 19 20  1  0  0  0  0
 20 21  1  0  0  0  0
 16 21  1  0  0  0  0
M  END
> <ID>
CPD_4107

$$$$
CPD_4112
  Mrv1822 09091914012D          

 20 21  0  0  0  0            999 V2000
    0.6078    1.1759    0.0000 C   0  0  0  0  0  0  0  0  0  0  0  0
    1.3222    0.7634    0.0000 C   0  0  0  0  0  0  0  0  0  0  0  0
    1.3222   -0.0616    0.0000 O   0  0  0  0  0  0  0  0  0  0  0  0
    2.0367   -0.4741    0.0000 C   0  0  0  0  0  0  0  0  0  0  0  0
    2.7512   -0.0616    0.0000 O   0  0  0  0  0  0  0  0  0  0  0  0
    2.0367   -1.2991    0.0000 C   0  0  0  0  0  0  0  0  0  0  0  0
    2.7041   -1.7840    0.0000 N   0  0  0  0  0  0  0  0  0  0  0  0
    2.4492   -2.5687    0.0000 C   0  0  0  0  0  0  0  0  0  0  0  0
    2.9341   -3.2361    0.0000 C   0  0  0  0  0  0  0  0  0  0  0  0
    2.5986   -3.9898    0.0000 C   0  0  0  0  0  0  0  0  0  0  0  0
    3.0835   -4.6572    0.0000 C   0  0  0  0  0  0  0  0  0  0  0  0
    3.9040   -4.5710    0.0000 Cl  0  0  0  0  0  0  0  0  0  0  0  0
    2.7479   -5.4109    0.0000 C   0  0  0  0  0  0  0  0  0  0  0  0
    1.9275   -5.4971    0.0000 C   0  0  0  0  0  0  0  0  0  0  0  0
    1.4425   -4.8297    0.0000 C   0  0  0  0  0  0  0  0  0  0  0  0
    1.7781   -4.0760    0.0000 C   0  0  0  0  0  0  0  0  0  0  0  0
    1.2932   -3.4086    0.0000 Cl  0  0  0  0  0  0  0  0  0  0  0  0
    1.6242   -2.5687    0.0000 S   0  0  0  0  0  0  0  0  0  0  0  0
    1.3693   -1.7840    0.0000 C   0  0  0  0  0  0  0  0  0  0  0  0
    0.5846   -1.5291    0.0000 C   0  0  0  0  0  0  0  0  0  0  0  0
  1  2  1  0  0  0  0
  2  3  1  0  0  0  0
  3  4  1  0  0  0  0
  4  5  2  0  0  0  0
  4  6  1  0  0  0  0
  6  7  4  0  0  0  0
  7  8  4  0  0  0  0
  8  9  1  0  0  0  0
  9 10  1  0  0  0  0
 10 11  4  0  0  0  0
 11 12  1  0  0  0  0
 11 13  4  0  0  0  0
 13 14  4  0  0  0  0
 14 15  4  0  0  0  0
 15 16  4  0  0  0  0
 10 16  4  0  0  0  0
 16 17  1  0  0  0  0
  8 18  4  0  0  0  0
 18 19  4  0  0  0  0
  6 19  4  0  0  0  0
 19 20  1  0  0  0  0
M  END
> <ID>
CPD_4112

$$$$
CPD_4117
  Mrv1822 09091914012D          

 17 18  0  0  0  0            999 V2000
    0.7145    6.7661    0.0000 C   0  0  0  0  0  0  0  0  0  0  0  0
    0.7145    5.9411    0.0000 C   0  0  0  0  0  0  0  0  0  0  0  0
    1.4289    5.5286    0.0000 C   0  0  0  0  0  0  0  0  0  0  0  0
    1.4289    4.7036    0.0000 C   0  0  0  0  0  0  0  0  0  0  0  0
    0.7145    4.2911    0.0000 C   0  0  0  0  0  0  0  0  0  0  0  0
    0.0000    4.7036    0.0000 C   0  0  0  0  0  0  0  0  0  0  0  0
   -0.0000    5.5286    0.0000 C   0  0  0  0  0  0  0  0  0  0  0  0
   -0.7145    5.9411    0.0000 C   0  0  0  0  0  0  0  0  0  0  0  0
    0.7145    3.4661    0.0000 C   0  0  0  0  0  0  0  0  0  0  0  0
    1.3819    2.9812    0.0000 N   0  0  0  0  0  0  0  0  0  0  0  0
    1.1270    2.1965    0.0000 C   0  0  0  0  0  0  0  0  0  0  0  0
    1.6119    1.5291    0.0000 C   0  0  0  0  0  0  0  0  0  0  0  0
    2.4324    1.6153    0.0000 F   0  0  0  0  0  0  0  0  0  0  0  0
    1.2763    0.7754    0.0000 F   0  0  0  0  0  0  0  0  0  0  0  0
    0.3020    2.1965    0.0000 C   0  0  0  0  0  0  0  0  0  0  0  0
   -0.1830    1.5291    0.0000 Br  0  0  0  0  0  0  0  0  0  0  0  0
    0.0470    2.9812    0.0000 S   0  0  0  0  0  0  0  0  0  0  0  0
  1  2  1  0  0  0  0
  2  3  4  0  0  0  0
  3  4  4  0  0  0  0
  4  5  4  0  0  0  0
  5  6  4  0  0  0  0
  6  7  4  0  0  0  0
  2  7  4  0  0  0  0
  7  8  1  0  0  0  0
  5  9  1  0  0  0  0
  9 10  4  0  0  0  0
 10 11  4  0  0  0  0
 11 12  1  0  0  0  0
 12 13  1  0  0  0  0
 12 14  1  0  0  0  0
 11 15  4  0  0  0  0
 15 16  1  0  0  0  0
 15 17  4  0  0  0  0
  9 17  4  0  0  0  0
M  END
> <ID>
CPD_4117

$$$$
CPD_4122
  Mrv1822 09091914012D          

 24 26  0  0  0  0            999 V2000
    3.6576   -1.2725    0.0000 C   0  0  0  0  0  0  0  0  0  0  0  0
    3.6576   -2.0975    0.0000 O   0  0  0  0  0  0  0  0  0  0  0  0
    2.9431   -2.5100    0.0000 C   0  0  0  0  0  0  0  0  0  0  0  0
    2.2287   -2.0975    0.0000 O   0  0  0  0  0  0  0  0  0  0  0  0
    2.9431   -3.3350    0.0000 C   0  0  0  0  0  0  0  0  0  0  0  0
    3.6106   -3.8199    0.0000 C   0  0  0  0  0  0  0  0  0  0  0  0
    3.3556   -4.6046    0.0000 C   0  0  0  0  0  0  0  0  0  0  0  0
    2.5306   -4.6046    0.0000 C   0  0  0  0  0  0  0  0  0  0  0  0
    2.2757   -3.8199    0.0000 S   0  0  0  0  0  0  0  0  0  0  0  0
    2.0457   -5.2720    0.0000 C   0  0  0  0  0  0  0  0  0  0  0  0
    2.3007   -6.0566    0.0000 N   0  0  0  0  0  0  0  0  0  0  0  0
    1.6332   -6.5415    0.0000 C   0  0  0  0  0  0  0  0  0  0  0  0
    1.6332   -7.3665    0.0000 N   0  0  0  0  0  0  0  0  0  0  0  0
    0.9188   -7.7790    0.0000 C   0  0  0  0  0  0  0  0  0  0  0  0
    0.9188   -8.6040    0.0000 C   0  0  0  0  0  0  0  0  0  0  0  0
    0.2043   -9.0165    0.0000 C   0  0  0  0  0  0  0  0  0  0  0  0
   -0.5102   -8.6040    0.0000 C   0  0  0  0  0  0  0  0  0  0  0  0
   -1.2247   -9.0165    0.0000 O   0  0  0  0  0  0  0  0  0  0  0  0
   -1.2247   -9.8415    0.0000 C   0  0  0  0  0  0  0  0  0  0  0  0
   -0.5102   -7.7790    0.0000 C   0  0  0  0  0  0  0  0  0  0  0  0
    0.2043   -7.3665    0.0000 C   0  0  0  0  0  0  0  0  0  0  0  0
    0.9658   -6.0566    0.0000 S   0  0  0  0  0  0  0  0  0  0  0  0
    1.2207   -5.2720    0.0000 C   0  0  0  0  0  0  0  0  0  0  0  0
    0.7358   -4.6046    0.0000 Br  0  0  0  0  0  0  0  0  0  0  0  0
  1  2  1  0  0  0  0
  2  3  1  0  0  0  0
  3  4  2  0  0  0  0
  3  5  1  0  0  0  0
  5  6  4  0  0  0  0
  6  7  4  0  0  0  0
  7  8  4  0  0  0  0
  8  9  4  0  0  0  0
  5  9  4  0  0  0  0
  8 10  1  0  0  0  0
 10 11  4  0  0  0  0
 11 12  4  0  0  0  0
 12 13  1  0  0  0  0
 13 14  1  0  0  0  0
 14 15  4  0  0  0  0
 15 16  4  0  0  0  0
 16 17  4  0  0  0  0
 17 18  1  0  0  0  0
 18 19  1  0  0  0  0
 17 20  4  0  0  0  0
 20 21  4  0  0  0  0
 14 21  4  0  0  0  0
 12 22  4  0  0  0  0
 22 23  4  0  0  0  0
 10 23  4  0  0  0  0
 23 24  1  0  0  0  0
M  END
> <ID>
CPD_4122

$$$$
CPD_4127
  Mrv1822 09091914012D          

 37 43  0  0  0  0            999 V2000
    1.5321    5.1514    0.0000 C   0  0  0  0  0  0  0  0  0  0  0  0
    1.9847    4.4616    0.0000 N   0  3  0  0  0  0  0  0  0  0  0  0
    2.8084    4.5087    0.0000 C   0  0  0  0  0  0  0  0  0  0  0  0
    3.2610    3.8190    0.0000 C   0  0  0  0  0  0  0  0  0  0  0  0
    2.8900    3.0821    0.0000 C   0  0  0  0  0  0  0  0  0  0  0  0
    2.0663    3.0350    0.0000 C   0  0  0  0  0  0  0  0  0  0  0  0
    1.6137    3.7248    0.0000 C   0  0  0  0  0  0  0  0  0  0  0  0
    4.0846    3.8661    0.0000 C   0  0  0  0  0  0  0  0  0  0  0  0
    4.5307    4.5601    0.0000 N   0  0  0  0  0  0  0  0  0  0  0  0
    5.3286    4.3504    0.0000 S   0  0  0  0  0  0  0  0  0  0  0  0
    5.3757    3.5267    0.0000 N   0  0  0  0  0  0  0  0  0  0  0  0
    4.6069    3.2274    0.0000 C   0  0  0  0  0  0  0  0  0  0  0  0
    4.3971    2.4295    0.0000 C   0  0  0  0  0  0  0  0  0  0  0  0
    5.1930    2.6468    0.0000 C   0  0  0  0  0  0  0  0  0  0  0  0
    5.7791    2.0662    0.0000 C   0  0  0  0  0  0  0  0  0  0  0  0
    5.5694    1.2683    0.0000 C   0  0  0  0  0  0  0  0  0  0  0  0
    4.7735    1.0510    0.0000 C   0  0  0  0  0  0  0  0  0  0  0  0
    4.1874    1.6316    0.0000 C   0  0  0  0  0  0  0  0  0  0  0  0
    3.9777    0.8337    0.0000 C   0  0  0  0  0  0  0  0  0  0  0  0
    3.3916    1.4143    0.0000 C   0  0  0  0  0  0  0  0  0  0  0  0
    3.1818    0.6164    0.0000 C   0  0  0  0  0  0  0  0  0  0  0  0
    2.3860    0.3991    0.0000 C   0  0  0  0  0  0  0  0  0  0  0  0
    1.7998    0.9797    0.0000 C   0  0  0  0  0  0  0  0  0  0  0  0
    1.5078    0.2081    0.0000 C   0  0  0  0  0  0  0  0  0  0  0  0
    2.0096    1.7776    0.0000 C   0  0  0  0  0  0  0  0  0  0  0  0
    1.3155    2.2236    0.0000 C   0  0  0  0  0  0  0  0  0  0  0  0
    0.6769    1.7014    0.0000 C   0  0  0  0  0  0  0  0  0  0  0  0
    0.9762    0.9326    0.0000 C   0  0  0  0  0  0  0  0  0  0  0  0
    0.9283    0.1090    0.0000 O   0  0  0  0  0  0  0  0  0  0  0  0
    0.2469    0.5469    0.0000 C   0  0  0  0  0  0  0  0  0  0  0  0
   -0.4824    0.1612    0.0000 C   0  0  0  0  0  0  0  0  0  0  0  0
    2.8054    1.9949    0.0000 C   0  0  0  0  0  0  0  0  0  0  0  0
    3.0152    2.7928    0.0000 C   0  0  0  0  0  0  0  0  0  0  0  0
    3.8110    3.0101    0.0000 C   0  0  0  0  0  0  0  0  0  0  0  0
    6.2634    0.8223    0.0000 C   0  0  0  0  0  0  0  0  0  0  0  0
    6.9021    1.3445    0.0000 N   0  0  0  0  0  0  0  0  0  0  0  0
    6.6028    2.1133    0.0000 O   0  0  0  0  0  0  0  0  0  0  0  0
  1  2  1  0  0  0  0
  2  3  2  0  0  0  0
  3  4  1  0  0  0  0
  4  5  2  0  0  0  0
  5  6  1  0  0  0  0
  6  7  2  0  0  0  0
  2  7  1  0  0  0  0
  4  8  1  0  0  0  0
  8  9  2  0  0  0  0
  9 10  1  0  0  0  0
 10 11  1  0  0  0  0
 11 12  2  0  0  0  0
  8 12  1  0  0  0  0
 12 13  1  0  0  0  0
 13 14  2  0  0  0  0
 14 15  1  0  0  0  0
 15 16  2  0  0  0  0
 16 17  1  0  0  0  0
 17 18  1  0  0  0  0
 13 18  1  0  0  0  0
 18 19  1  0  0  0  0
 18 20  1  0  0  0  0
 20 21  1  0  0  0  0
 21 22  1  0  0  0  0
 22 23  1  0  0  0  0
 23 24  1  0  0  0  0
 23 25  1  0  0  0  0
 25 26  1  0  0  0  0
 26 27  1  0  0  0  0
 27 28  1  0  0  0  0
 23 28  1  0  0  0  0
 28 29  1  0  0  0  0
 28 30  1  0  0  0  0
 30 31  3  0  0  0  0
 25 32  1  0  0  0  0
 20 32  1  0  0  0  0
 32 33  1  0  0  0  0
 33 34  1  0  0  0  0
 13 34  1  0  0  0  0
 16 35  1  0  0  0  0
 35 36  2  0  0  0  0
 36 37  1  0  0  0  0
 15 37  1  0  0  0  0
M  CHG  1   2   1
M  END
> <ID>
CPD_4127

$$$$
CPD_4132
  Mrv1822 09091914012D          

 34 38  0  0  0  0            999 V2000
   -5.0013   -3.7125    0.0000 C   0  0  0  0  0  0  0  0  0  0  0  0
   -5.0013   -2.8875    0.0000 C   0  0  0  0  0  0  0  0  0  0  0  0
   -4.2868   -2.4750    0.0000 O   0  0  0  0  0  0  0  0  0  0  0  0
   -4.2868   -1.6500    0.0000 C   0  0  0  0  0  0  0  0  0  0  0  0
   -5.0013   -1.2375    0.0000 O   0  0  0  0  0  0  0  0  0  0  0  0
   -3.5724   -1.2375    0.0000 C   0  0  0  0  0  0  0  0  0  0  0  0
   -3.5724   -0.4125    0.0000 C   0  0  0  0  0  0  0  0  0  0  0  0
   -2.8579    0.0000    0.0000 C   0  0  0  0  0  0  0  0  0  0  0  0
   -2.1434   -0.4125    0.0000 C   0  0  0  0  0  0  0  0  0  0  0  0
   -1.4289    0.0000    0.0000 N   0  0  0  0  0  0  0  0  0  0  0  0
   -0.7145   -0.4125    0.0000 C   0  0  0  0  0  0  0  0  0  0  0  0
   -0.7145   -1.2375    0.0000 O   0  0  0  0  0  0  0  0  0  0  0  0
   -0.0000    0.0000    0.0000 C   0  0  0  0  0  0  0  0  0  0  0  0
    0.7145   -0.4125    0.0000 C   0  0  0  0  0  0  0  0  0  0  0  0
    0.5082    0.4125    0.0000 C   0  0  0  0  0  0  0  0  0  0  0  0
    0.7145    1.2375    0.0000 C   0  0  0  0  0  0  0  0  0  0  0  0
    0.0000    0.8250    0.0000 C   0  0  0  0  0  0  0  0  0  0  0  0
   -0.7145    1.2375    0.0000 C   0  0  0  0  0  0  0  0  0  0  0  0
   -1.4289    0.8250    0.0000 O   0  0  0  0  0  0  0  0  0  0  0  0
   -0.7145    2.0625    0.0000 O   0  0  0  0  0  0  0  0  0  0  0  0
    1.4289    0.8250    0.0000 C   0  0  0  0  0  0  0  0  0  0  0  0
    1.4289    0.0000    0.0000 C   0  0  0  0  0  0  0  0  0  0  0  0
    2.1434    1.2375    0.0000 C   0  0  0  0  0  0  0  0  0  0  0  0
    2.1434    2.0625    0.0000 C   0  0  0  0  0  0  0  0  0  0  0  0
    2.8579    2.4750    0.0000 N   0  0  0  0  0  0  0  0  0  0  0  0
    3.5724    2.0625    0.0000 C   0  0  0  0  0  0  0  0  0  0  0  0
    4.2868    2.4750    0.0000 N   0  0  0  0  0  0  0  0  0  0  0  0
    5.0013    2.0625    0.0000 C   0  0  0  0  0  0  0  0  0  0  0  0
    5.8263    2.0625    0.0000 C   0  0  0  0  0  0  0  0  0  0  0  0
    5.4138    1.3480    0.0000 C   0  0  0  0  0  0  0  0  0  0  0  0
    3.5724    1.2375    0.0000 C   0  0  0  0  0  0  0  0  0  0  0  0
    2.8579    0.8250    0.0000 C   0  0  0  0  0  0  0  0  0  0  0  0
   -2.1434   -1.2375    0.0000 C   0  0  0  0  0  0  0  0  0  0  0  0
   -2.8579   -1.6500    0.0000 C   0  0  0  0  0  0  0  0  0  0  0  0
  1  2  1  0  0  0  0
  2  3  1  0  0  0  0
  3  4  1  0  0  0  0
  4  5  2  0  0  0  0
  4  6  1  0  0  0  0
  6  7  2  0  0  0  0
  7  8  1  0  0  0  0
  8  9  2  0  0  0  0
  9 10  1  0  0  0  0
 10 11  1  0  0  0  0
 11 12  2  0  0  0  0
 11 13  1  0  0  0  0
 13 14  1  0  0  0  0
 14 15  1  0  0  0  0
 15 16  1  0  0  0  0
 16 17  1  0  0  0  0
 13 17  1  0  0  0  0
 17 18  1  0  0  0  0
 18 19  1  0  0  0  0
 18 20  2  0  0  0  0
 16 21  1  0  0  0  0
 21 22  2  0  0  0  0
 14 22  1  0  0  0  0
 21 23  1  0  0  0  0
 23 24  2  0  0  0  0
 24 25  1  0  0  0  0
 25 26  2  0  0  0  0
 26 27  1  0  0  0  0
 27 28  1  0  0  0  0
 28 29  1  0  0  0  0
 29 30  1  0  0  0  0
 28 30  1  0  0  0  0
 26 31  1  0  0  0  0
 31 32  2  0  0  0  0
 23 32  1  0  0  0  0
  9 33  1  0  0  0  0
 33 34  2  0  0  0  0
  6 34  1  0  0  0  0
M  END
> <ID>
CPD_4132

$$$$
CPD_4137
  Mrv1822 09091914012D          

 33 37  0  0  0  0            999 V2000
    7.1447   -4.9500    0.0000 C   0  0  0  0  0  0  0  0  0  0  0  0
    6.4302   -5.3625    0.0000 C   0  0  0  0  0  0  0  0  0  0  0  0
    5.7158   -4.9500    0.0000 O   0  0  0  0  0  0  0  0  0  0  0  0
    5.0013   -5.3625    0.0000 C   0  0  0  0  0  0  0  0  0  0  0  0
    5.0013   -6.1875    0.0000 O   0  0  0  0  0  0  0  0  0  0  0  0
    4.2868   -4.9500    0.0000 C   0  0  0  0  0  0  0  0  0  0  0  0
    3.5724   -5.3625    0.0000 C   0  0  0  0  0  0  0  0  0  0  0  0
    2.8579   -4.9500    0.0000 C   0  0  0  0  0  0  0  0  0  0  0  0
    2.8579   -4.1250    0.0000 C   0  0  0  0  0  0  0  0  0  0  0  0
    2.1434   -3.7125    0.0000 N   0  0  0  0  0  0  0  0  0  0  0  0
    2.1434   -2.8875    0.0000 C   0  0  0  0  0  0  0  0  0  0  0  0
    2.8579   -2.4750    0.0000 O   0  0  0  0  0  0  0  0  0  0  0  0
    1.4289   -2.4750    0.0000 C   0  0  0  0  0  0  0  0  0  0  0  0
    1.4289   -1.6500    0.0000 C   0  0  0  0  0  0  0  0  0  0  0  0
    0.8176   -2.2411    0.0000 C   0  0  0  0  0  0  0  0  0  0  0  0
    0.0000   -2.4750    0.0000 C   0  0  0  0  0  0  0  0  0  0  0  0
    0.0000   -1.6500    0.0000 C   0  0  0  0  0  0  0  0  0  0  0  0
    0.7145   -1.2375    0.0000 C   0  0  0  0  0  0  0  0  0  0  0  0
    0.7145   -0.4125    0.0000 C   0  0  0  0  0  0  0  0  0  0  0  0
    0.0000    0.0000    0.0000 C   0  0  0  0  0  0  0  0  0  0  0  0
   -0.7846   -0.2549    0.0000 C   0  0  0  0  0  0  0  0  0  0  0  0
   -1.2695    0.4125    0.0000 C   0  0  0  0  0  0  0  0  0  0  0  0
   -0.7846    1.0799    0.0000 N   0  0  0  0  0  0  0  0  0  0  0  0
    0.0000    0.8250    0.0000 C   0  0  0  0  0  0  0  0  0  0  0  0
    0.7145    1.2375    0.0000 C   0  0  0  0  0  0  0  0  0  0  0  0
    1.4289    0.8250    0.0000 C   0  0  0  0  0  0  0  0  0  0  0  0
    1.4289    0.0000    0.0000 N   0  0  0  0  0  0  0  0  0  0  0  0
    0.7145   -2.8875    0.0000 C   0  0  0  0  0  0  0  0  0  0  0  0
    0.7145   -3.7125    0.0000 C   0  0  0  0  0  0  0  0  0  0  0  0
    1.4289   -4.1250    0.0000 O   0  0  0  0  0  0  0  0  0  0  0  0
    0.0000   -4.1250    0.0000 O   0  0  0  0  0  0  0  0  0  0  0  0
    3.5724   -3.7125    0.0000 C   0  0  0  0  0  0  0  0  0  0  0  0
    4.2868   -4.1250    0.0000 C   0  0  0  0  0  0  0  0  0  0  0  0
  1  2  1  0  0  0  0
  2  3  1  0  0  0  0
  3  4  1  0  0  0  0
  4  5  2  0  0  0  0
  4  6  1  0  0  0  0
  6  7  2  0  0  0  0
  7  8  1  0  0  0  0
  8  9  2  0  0  0  0
  9 10  1  0  0  0  0
 10 11  1  0  0  0  0
 11 12  2  0  0  0  0
 11 13  1  0  0  0  0
 13 14  1  0  0  0  0
 14 15  1  0  0  0  0
 15 16  1  0  0  0  0
 16 17  1  0  0  0  0
 17 18  2  0  0  0  0
 14 18  1  0  0  0  0
 18 19  1  0  0  0  0
 19 20  2  0  0  0  0
 20 21  1  0  0  0  0
 21 22  2  0  0  0  0
 22 23  1  0  0  0  0
 23 24  1  0  0  0  0
 20 24  1  0  0  0  0
 24 25  2  0  0  0  0
 25 26  1  0  0  0  0
 26 27  2  0  0  0  0
 19 27  1  0  0  0  0
 16 28  1  0  0  0  0
 13 28  1  0  0  0  0
 28 29  1  0  0  0  0
 29 30  1  0  0  0  0
 29 31  2  0  0  0  0
  9 32  1  0  0  0  0
 32 33  2  0  0  0  0
  6 33  1  0  0  0  0
M  END
> <ID>
CPD_4137

$$$$
CPD_4142
  Mrv1822 09091914012D          

 34 38  0  0  0  0            999 V2000
    5.8521   -7.6679    0.0000 C   0  0  0  0  0  0  0  0  0  0  0  0
    5.0451   -7.8394    0.0000 C   0  0  0  0  0  0  0  0  0  0  0  0
    4.4931   -7.2263    0.0000 O   0  0  0  0  0  0  0  0  0  0  0  0
    3.6861   -7.3978    0.0000 C   0  0  0  0  0  0  0  0  0  0  0  0
    3.4312   -8.1824    0.0000 O   0  0  0  0  0  0  0  0  0  0  0  0
    3.1341   -6.7847    0.0000 C   0  0  0  0  0  0  0  0  0  0  0  0
    2.3271   -6.9562    0.0000 C   0  0  0  0  0  0  0  0  0  0  0  0
    1.7751   -6.3432    0.0000 C   0  0  0  0  0  0  0  0  0  0  0  0
    2.0300   -5.5585    0.0000 C   0  0  0  0  0  0  0  0  0  0  0  0
    1.4780   -4.9454    0.0000 N   0  0  0  0  0  0  0  0  0  0  0  0
    1.7329   -4.1608    0.0000 C   0  0  0  0  0  0  0  0  0  0  0  0
    2.5399   -3.9893    0.0000 O   0  0  0  0  0  0  0  0  0  0  0  0
    1.1809   -3.5477    0.0000 C   0  0  0  0  0  0  0  0  0  0  0  0
    1.4358   -2.7631    0.0000 C   0  0  0  0  0  0  0  0  0  0  0  0
    0.6717   -3.1364    0.0000 C   0  0  0  0  0  0  0  0  0  0  0  0
   -0.1781   -3.1062    0.0000 C   0  0  0  0  0  0  0  0  0  0  0  0
    0.0768   -2.3215    0.0000 C   0  0  0  0  0  0  0  0  0  0  0  0
    0.8838   -2.1500    0.0000 C   0  0  0  0  0  0  0  0  0  0  0  0
    1.1387   -1.3654    0.0000 C   0  0  0  0  0  0  0  0  0  0  0  0
    0.6538   -0.6979    0.0000 N   0  0  0  0  0  0  0  0  0  0  0  0
    1.1387   -0.0305    0.0000 N   0  0  0  0  0  0  0  0  0  0  0  0
    1.9233   -0.2854    0.0000 C   0  0  0  0  0  0  0  0  0  0  0  0
    2.6378    0.1271    0.0000 C   0  0  0  0  0  0  0  0  0  0  0  0
    2.6378    0.9521    0.0000 N   0  0  0  0  0  0  0  0  0  0  0  0
    3.3523   -0.2854    0.0000 C   0  0  0  0  0  0  0  0  0  0  0  0
    3.3523   -1.1104    0.0000 C   0  0  0  0  0  0  0  0  0  0  0  0
    2.6378   -1.5229    0.0000 C   0  0  0  0  0  0  0  0  0  0  0  0
    1.9233   -1.1104    0.0000 C   0  0  0  0  0  0  0  0  0  0  0  0
    0.3739   -3.7192    0.0000 C   0  0  0  0  0  0  0  0  0  0  0  0
    0.1190   -4.5039    0.0000 C   0  0  0  0  0  0  0  0  0  0  0  0
    0.6710   -5.1170    0.0000 O   0  0  0  0  0  0  0  0  0  0  0  0
   -0.6880   -4.6754    0.0000 O   0  0  0  0  0  0  0  0  0  0  0  0
    2.8370   -5.3870    0.0000 C   0  0  0  0  0  0  0  0  0  0  0  0
    3.3890   -6.0001    0.0000 C   0  0  0  0  0  0  0  0  0  0  0  0
  1  2  1  0  0  0  0
  2  3  1  0  0  0  0
  3  4  1  0  0  0  0
  4  5  2  0  0  0  0
  4  6  1  0  0  0  0
  6  7  2  0  0  0  0
  7  8  1  0  0  0  0
  8  9  2  0  0  0  0
  9 10  1  0  0  0  0
 10 11  1  0  0  0  0
 11 12  2  0  0  0  0
 11 13  1  0  0  0  0
 13 14  1  0  0  0  0
 14 15  1  0  0  0  0
 15 16  1  0  0  0  0
 16 17  1  0  0  0  0
 17 18  2  0  0  0  0
 14 18  1  0  0  0  0
 18 19  1  0  0  0  0
 19 20  2  0  0  0  0
 20 21  1  0  0  0  0
 21 22  1  0  0  0  0
 22 23  2  0  0  0  0
 23 24  1  0  0  0  0
 23 25  1  0  0  0  0
 25 26  2  0  0  0  0
 26 27  1  0  0  0  0
 27 28  2  0  0  0  0
 19 28  1  0  0  0  0
 22 28  1  0  0  0  0
 16 29  1  0  0  0  0
 13 29  1  0  0  0  0
 29 30  1  0  0  0  0
 30 31  1  0  0  0  0
 30 32  2  0  0  0  0
  9 33  1  0  0  0  0
 33 34  2  0  0  0  0
  6 34  1  0  0  0  0
M  END
> <ID>
CPD_4142

$$$$
CPD_4147
  Mrv1822 09091914012D          

 24 26  0  0  0  0            999 V2000
   -1.4257   -7.8243    0.0000 C   0  0  0  0  0  0  0  0  0  0  0  0
   -1.7613   -7.0706    0.0000 C   0  0  0  0  0  0  0  0  0  0  0  0
   -1.2763   -6.4032    0.0000 C   0  0  0  0  0  0  0  0  0  0  0  0
   -1.6119   -5.6495    0.0000 C   0  0  0  0  0  0  0  0  0  0  0  0
   -2.4324   -5.5632    0.0000 C   0  0  0  0  0  0  0  0  0  0  0  0
   -1.1270   -4.9820    0.0000 C   0  0  0  0  0  0  0  0  0  0  0  0
   -1.3819   -4.1974    0.0000 C   0  0  0  0  0  0  0  0  0  0  0  0
   -0.7145   -3.7125    0.0000 N   0  0  0  0  0  0  0  0  0  0  0  0
   -0.7145   -2.8875    0.0000 C   0  0  0  0  0  0  0  0  0  0  0  0
    0.0000   -2.4750    0.0000 C   0  0  0  0  0  0  0  0  0  0  0  0
    0.7145   -2.8875    0.0000 O   0  0  0  0  0  0  0  0  0  0  0  0
    0.0000   -1.6500    0.0000 N   0  0  0  0  0  0  0  0  0  0  0  0
    0.7145   -1.2375    0.0000 C   0  0  0  0  0  0  0  0  0  0  0  0
    0.7145   -0.4125    0.0000 C   0  0  0  0  0  0  0  0  0  0  0  0
    1.4289    0.0000    0.0000 C   0  0  0  0  0  0  0  0  0  0  0  0
    2.1434   -0.4125    0.0000 C   0  0  0  0  0  0  0  0  0  0  0  0
    2.8579    0.0000    0.0000 O   0  0  0  0  0  0  0  0  0  0  0  0
    3.5724   -0.4125    0.0000 C   0  0  0  0  0  0  0  0  0  0  0  0
    3.5724   -1.2375    0.0000 C   0  0  0  0  0  0  0  0  0  0  0  0
    2.8579   -1.6500    0.0000 O   0  0  0  0  0  0  0  0  0  0  0  0
    2.1434   -1.2375    0.0000 C   0  0  0  0  0  0  0  0  0  0  0  0
    1.4289   -1.6500    0.0000 C   0  0  0  0  0  0  0  0  0  0  0  0
   -0.0470   -4.1974    0.0000 N   0  0  0  0  0  0  0  0  0  0  0  0
   -0.3020   -4.9820    0.0000 N   0  0  0  0  0  0  0  0  0  0  0  0
  1  2  1  0  0  0  0
  2  3  1  0  0  0  0
  3  4  1  0  0  0  0
  4  5  1  0  0  0  0
  4  6  1  0  0  0  0
  6  7  4  0  0  0  0
  7  8  4  0  0  0  0
  8  9  1  0  0  0  0
  9 10  1  0  0  0  0
 10 11  2  0  0  0  0
 10 12  1  0  0  0  0
 12 13  1  0  0  0  0
 13 14  4  0  0  0  0
 14 15  4  0  0  0  0
 15 16  4  0  0  0  0
 16 17  1  0  0  0  0
 17 18  1  0  0  0  0
 18 19  1  0  0  0  0
 19 20  1  0  0  0  0
 20 21  1  0  0  0  0
 16 21  4  0  0  0  0
 21 22  4  0  0  0  0
 13 22  4  0  0  0  0
  8 23  4  0  0  0  0
 23 24  4  0  0  0  0
  6 24  4  0  0  0  0
M  END
> <ID>
CPD_4147

$$$$
CPD_4152
  Mrv1822 09091914012D          

 30 33  0  0  0  0            999 V2000
   -7.2003   -3.0133    0.0000 C   0  0  0  0  0  0  0  0  0  0  0  0
   -6.4466   -2.6777    0.0000 S   0  0  0  0  0  0  0  0  0  0  0  0
   -6.3604   -1.8572    0.0000 C   0  0  0  0  0  0  0  0  0  0  0  0
   -7.0278   -1.3723    0.0000 C   0  0  0  0  0  0  0  0  0  0  0  0
   -6.9416   -0.5518    0.0000 C   0  0  0  0  0  0  0  0  0  0  0  0
   -6.1879   -0.2163    0.0000 C   0  0  0  0  0  0  0  0  0  0  0  0
   -5.5205   -0.7012    0.0000 C   0  0  0  0  0  0  0  0  0  0  0  0
   -4.7668   -0.3656    0.0000 N   0  0  0  0  0  0  0  0  0  0  0  0
   -4.0994   -0.8505    0.0000 C   0  0  0  0  0  0  0  0  0  0  0  0
   -4.1856   -1.6710    0.0000 O   0  0  0  0  0  0  0  0  0  0  0  0
   -3.3457   -0.5150    0.0000 C   0  0  0  0  0  0  0  0  0  0  0  0
   -2.6782   -0.9999    0.0000 N   0  0  0  0  0  0  0  0  0  0  0  0
   -1.8936   -0.7450    0.0000 C   0  0  0  0  0  0  0  0  0  0  0  0
   -1.4087   -1.4124    0.0000 C   0  0  0  0  0  0  0  0  0  0  0  0
   -0.5837   -1.4124    0.0000 C   0  0  0  0  0  0  0  0  0  0  0  0
   -0.1712   -0.6979    0.0000 C   0  0  0  0  0  0  0  0  0  0  0  0
    0.6538   -0.6979    0.0000 N   0  0  0  0  0  0  0  0  0  0  0  0
    1.1387   -0.0305    0.0000 C   0  0  0  0  0  0  0  0  0  0  0  0
    0.8838    0.7541    0.0000 O   0  0  0  0  0  0  0  0  0  0  0  0
    1.9233   -0.2854    0.0000 C   0  0  0  0  0  0  0  0  0  0  0  0
    2.6378    0.1271    0.0000 C   0  0  0  0  0  0  0  0  0  0  0  0
    3.3523   -0.2854    0.0000 C   0  0  0  0  0  0  0  0  0  0  0  0
    3.3523   -1.1104    0.0000 C   0  0  0  0  0  0  0  0  0  0  0  0
    2.6378   -1.5229    0.0000 C   0  0  0  0  0  0  0  0  0  0  0  0
    1.9233   -1.1104    0.0000 C   0  0  0  0  0  0  0  0  0  0  0  0
    1.1387   -1.3654    0.0000 C   0  0  0  0  0  0  0  0  0  0  0  0
    0.8838   -2.1500    0.0000 O   0  0  0  0  0  0  0  0  0  0  0  0
   -1.8936   -2.0799    0.0000 N   0  0  0  0  0  0  0  0  0  0  0  0
   -2.6782   -1.8249    0.0000 N   0  0  0  0  0  0  0  0  0  0  0  0
   -5.6067   -1.5217    0.0000 C   0  0  0  0  0  0  0  0  0  0  0  0
  1  2  1  0  0  0  0
  2  3  1  0  0  0  0
  3  4  4  0  0  0  0
  4  5  4  0  0  0  0
  5  6  4  0  0  0  0
  6  7  4  0  0  0  0
  7  8  1  0  0  0  0
  8  9  1  0  0  0  0
  9 10  2  0  0  0  0
  9 11  1  0  0  0  0
 11 12  1  0  0  0  0
 12 13  4  0  0  0  0
 13 14  4  0  0  0  0
 14 15  1  0  0  0  0
 15 16  1  0  0  0  0
 16 17  1  0  0  0  0
 17 18  1  0  0  0  0
 18 19  2  0  0  0  0
 18 20  1  0  0  0  0
 20 21  4  0  0  0  0
 21 22  4  0  0  0  0
 22 23  4  0  0  0  0
 23 24  4  0  0  0  0
 24 25  4  0  0  0  0
 20 25  4  0  0  0  0
 25 26  1  0  0  0  0
 17 26  1  0  0  0  0
 26 27  2  0  0  0  0
 14 28  4  0  0  0  0
 28 29  4  0  0  0  0
 12 29  4  0  0  0  0
  7 30  4  0  0  0  0
  3 30  4  0  0  0  0
M  END
> <ID>
CPD_4152

$$$$
CPD_4157
  Mrv1822 09091914012D          

 21 23  0  0  0  0            999 V2000
    0.5455   -0.1986    0.0000 O   0  0  0  0  0  0  0  0  0  0  0  0
   -0.2669   -0.0553    0.0000 C   0  0  0  0  0  0  0  0  0  0  0  0
   -1.0794   -0.1986    0.0000 C   0  0  0  0  0  0  0  0  0  0  0  0
   -1.6097    0.4334    0.0000 C   0  0  0  0  0  0  0  0  0  0  0  0
   -1.3275    1.2087    0.0000 C   0  0  0  0  0  0  0  0  0  0  0  0
   -0.5151    1.3519    0.0000 C   0  0  0  0  0  0  0  0  0  0  0  0
    0.0152    0.7199    0.0000 C   0  0  0  0  0  0  0  0  0  0  0  0
   -0.2669   -0.8803    0.0000 C   0  0  0  0  0  0  0  0  0  0  0  0
    0.4005   -1.3652    0.0000 C   0  0  0  0  0  0  0  0  0  0  0  0
    0.1456   -2.1498    0.0000 N   0  0  0  0  0  0  0  0  0  0  0  0
   -0.6794   -2.1498    0.0000 N   0  0  0  0  0  0  0  0  0  0  0  0
   -0.9344   -1.3652    0.0000 N   0  0  0  0  0  0  0  0  0  0  0  0
   -1.7190   -1.1103    0.0000 C   0  0  0  0  0  0  0  0  0  0  0  0
   -2.3321   -1.6623    0.0000 C   0  0  0  0  0  0  0  0  0  0  0  0
   -3.1391   -1.4908    0.0000 C   0  0  0  0  0  0  0  0  0  0  0  0
   -3.5516   -2.2053    0.0000 C   0  0  0  0  0  0  0  0  0  0  0  0
   -4.2190   -1.7203    0.0000 F   0  0  0  0  0  0  0  0  0  0  0  0
   -4.1036   -2.8184    0.0000 F   0  0  0  0  0  0  0  0  0  0  0  0
   -2.9995   -2.8184    0.0000 C   0  0  0  0  0  0  0  0  0  0  0  0
   -3.1711   -3.6253    0.0000 O   0  0  0  0  0  0  0  0  0  0  0  0
   -2.2458   -2.4828    0.0000 O   0  0  0  0  0  0  0  0  0  0  0  0
  1  2  1  0  0  0  0
  2  3  1  0  0  0  0
  3  4  1  0  0  0  0
  4  5  1  0  0  0  0
  5  6  1  0  0  0  0
  6  7  1  0  0  0  0
  2  7  1  0  0  0  0
  2  8  1  0  0  0  0
  8  9  4  0  0  0  0
  9 10  4  0  0  0  0
 10 11  4  0  0  0  0
 11 12  4  0  0  0  0
  8 12  4  0  0  0  0
 12 13  1  0  0  0  0
 13 14  1  0  0  0  0
 14 15  1  0  0  0  0
 15 16  1  0  0  0  0
 16 17  1  0  0  0  0
 16 18  1  0  0  0  0
 16 19  1  0  0  0  0
 19 20  2  0  0  0  0
 19 21  1  0  0  0  0
 14 21  1  0  0  0  0
M  END
> <ID>
CPD_4157

$$$$
CPD_4162
  Mrv1822 09091914012D          

 30 33  0  0  0  0            999 V2000
    6.3353    3.1263    0.0000 C   0  0  0  0  0  0  0  0  0  0  0  0
    6.5069    3.9332    0.0000 C   0  0  0  0  0  0  0  0  0  0  0  0
    5.8938    4.4853    0.0000 O   0  0  0  0  0  0  0  0  0  0  0  0
    6.0653    5.2922    0.0000 C   0  0  0  0  0  0  0  0  0  0  0  0
    6.8499    5.5472    0.0000 O   0  0  0  0  0  0  0  0  0  0  0  0
    5.4522    5.8443    0.0000 C   0  0  0  0  0  0  0  0  0  0  0  0
    5.6237    6.6512    0.0000 C   0  0  0  0  0  0  0  0  0  0  0  0
    5.0106    7.2033    0.0000 C   0  0  0  0  0  0  0  0  0  0  0  0
    4.2260    6.9483    0.0000 C   0  0  0  0  0  0  0  0  0  0  0  0
    4.0545    6.1414    0.0000 C   0  0  0  0  0  0  0  0  0  0  0  0
    4.6676    5.5893    0.0000 C   0  0  0  0  0  0  0  0  0  0  0  0
    4.4960    4.7824    0.0000 N   0  0  0  0  0  0  0  0  0  0  0  0
    3.7114    4.5274    0.0000 C   0  0  0  0  0  0  0  0  0  0  0  0
    3.0983    5.0795    0.0000 O   0  0  0  0  0  0  0  0  0  0  0  0
    3.5399    3.7205    0.0000 C   0  0  0  0  0  0  0  0  0  0  0  0
    4.1530    3.1684    0.0000 N   0  0  0  0  0  0  0  0  0  0  0  0
    4.9600    3.3400    0.0000 N   0  0  0  0  0  0  0  0  0  0  0  0
    5.3725    2.6255    0.0000 N   0  0  0  0  0  0  0  0  0  0  0  0
    4.8204    2.0124    0.0000 C   0  0  0  0  0  0  0  0  0  0  0  0
    4.0668    2.3479    0.0000 C   0  0  0  0  0  0  0  0  0  0  0  0
    3.3523    1.9354    0.0000 C   0  0  0  0  0  0  0  0  0  0  0  0
    3.3523    1.1104    0.0000 C   0  0  0  0  0  0  0  0  0  0  0  0
    2.6378    0.6979    0.0000 C   0  0  0  0  0  0  0  0  0  0  0  0
    1.9233    1.1104    0.0000 C   0  0  0  0  0  0  0  0  0  0  0  0
    1.1387    0.8555    0.0000 N   0  0  0  0  0  0  0  0  0  0  0  0
    0.6538    1.5229    0.0000 N   0  0  0  0  0  0  0  0  0  0  0  0
    1.1387    2.1904    0.0000 C   0  0  0  0  0  0  0  0  0  0  0  0
    0.8838    2.9750    0.0000 C   0  0  0  0  0  0  0  0  0  0  0  0
    1.9233    1.9354    0.0000 C   0  0  0  0  0  0  0  0  0  0  0  0
    2.6378    2.3479    0.0000 C   0  0  0  0  0  0  0  0  0  0  0  0
  1  2  1  0  0  0  0
  2  3  1  0  0  0  0
  3  4  1  0  0  0  0
  4  5  2  0  0  0  0
  4  6  1  0  0  0  0
  6  7  4  0  0  0  0
  7  8  4  0  0  0  0
  8  9  4  0  0  0  0
  9 10  4  0  0  0  0
 10 11  4  0  0  0  0
  6 11  4  0  0  0  0
 11 12  1  0  0  0  0
 12 13  1  0  0  0  0
 13 14  2  0  0  0  0
 13 15  1  0  0  0  0
 15 16  1  0  0  0  0
 16 17  4  0  0  0  0
 17 18  4  0  0  0  0
 18 19  4  0  0  0  0
 19 20  4  0  0  0  0
 16 20  4  0  0  0  0
 20 21  1  0  0  0  0
 21 22  4  0  0  0  0
 22 23  4  0  0  0  0
 23 24  4  0  0  0  0
 24 25  4  0  0  0  0
 25 26  4  0  0  0  0
 26 27  4  0  0  0  0
 27 28  1  0  0  0  0
 27 29  4  0  0  0  0
 24 29  4  0  0  0  0
 29 30  4  0  0  0  0
 21 30  4  0  0  0  0
M  STY  1   1 DAT
M  SAL   1  1  25
M  SDT   1 MRV_IMPLICIT_H                                        
M  SDD   1     0.5304   -0.4125    DR    ALL  0       0  
M  SED   1 IMPL_H1
M  END
> <ID>
CPD_4162

$$$$
CPD_4167
  Mrv1822 09091914012D          

 34 37  0  0  0  0            999 V2000
    1.6628    1.9036    0.0000 C   0  0  0  0  0  0  0  0  0  0  0  0
    2.3773    1.4911    0.0000 O   0  0  0  0  0  0  0  0  0  0  0  0
    3.0917    1.9036    0.0000 C   0  0  0  0  0  0  0  0  0  0  0  0
    3.0917    2.7286    0.0000 C   0  0  0  0  0  0  0  0  0  0  0  0
    3.8062    3.1411    0.0000 C   0  0  0  0  0  0  0  0  0  0  0  0
    4.5207    2.7286    0.0000 C   0  0  0  0  0  0  0  0  0  0  0  0
    5.2351    3.1411    0.0000 Br  0  0  0  0  0  0  0  0  0  0  0  0
    4.5207    1.9036    0.0000 C   0  0  0  0  0  0  0  0  0  0  0  0
    3.8062    1.4911    0.0000 C   0  0  0  0  0  0  0  0  0  0  0  0
    3.8062    0.6661    0.0000 C   0  0  0  0  0  0  0  0  0  0  0  0
    4.4736    0.1812    0.0000 N   0  0  0  0  0  0  0  0  0  0  0  0
    4.2187   -0.6034    0.0000 C   0  0  0  0  0  0  0  0  0  0  0  0
    4.7036   -1.2709    0.0000 C   0  0  0  0  0  0  0  0  0  0  0  0
    5.5241   -1.1846    0.0000 N   0  0  0  0  0  0  0  0  0  0  0  0
    5.9366   -0.4702    0.0000 N   0  0  0  0  0  0  0  0  0  0  0  0
    6.7436   -0.6417    0.0000 N   0  0  0  0  0  0  0  0  0  0  0  0
    6.8298   -1.4622    0.0000 C   0  0  0  0  0  0  0  0  0  0  0  0
    7.5443   -1.8747    0.0000 C   0  0  0  0  0  0  0  0  0  0  0  0
    6.0761   -1.7977    0.0000 C   0  0  0  0  0  0  0  0  0  0  0  0
    5.9046   -2.6047    0.0000 C   0  0  0  0  0  0  0  0  0  0  0  0
    6.5177   -3.1567    0.0000 C   0  0  0  0  0  0  0  0  0  0  0  0
    6.3462   -3.9637    0.0000 C   0  0  0  0  0  0  0  0  0  0  0  0
    5.5616   -4.2186    0.0000 O   0  0  0  0  0  0  0  0  0  0  0  0
    6.9593   -4.5157    0.0000 O   0  0  0  0  0  0  0  0  0  0  0  0
    5.1200   -2.8596    0.0000 C   0  0  0  0  0  0  0  0  0  0  0  0
    4.9485   -3.6666    0.0000 C   0  0  0  0  0  0  0  0  0  0  0  0
    4.1638   -3.9215    0.0000 C   0  0  0  0  0  0  0  0  0  0  0  0
    3.5507   -3.3695    0.0000 C   0  0  0  0  0  0  0  0  0  0  0  0
    2.7661   -3.6245    0.0000 O   0  0  0  0  0  0  0  0  0  0  0  0
    3.7223   -2.5625    0.0000 C   0  0  0  0  0  0  0  0  0  0  0  0
    4.5069   -2.3076    0.0000 C   0  0  0  0  0  0  0  0  0  0  0  0
    3.3937   -0.6034    0.0000 C   0  0  0  0  0  0  0  0  0  0  0  0
    2.9088   -1.2709    0.0000 C   0  0  0  0  0  0  0  0  0  0  0  0
    3.1388    0.1812    0.0000 O   0  0  0  0  0  0  0  0  0  0  0  0
  1  2  1  0  0  0  0
  2  3  1  0  0  0  0
  3  4  4  0  0  0  0
  4  5  4  0  0  0  0
  5  6  4  0  0  0  0
  6  7  1  0  0  0  0
  6  8  4  0  0  0  0
  8  9  4  0  0  0  0
  3  9  4  0  0  0  0
  9 10  1  0  0  0  0
 10 11  4  0  0  0  0
 11 12  4  0  0  0  0
 12 13  1  0  0  0  0
 13 14  1  0  0  0  0
 14 15  4  0  0  0  0
 15 16  4  0  0  0  0
 16 17  4  0  0  0  0
 17 18  1  0  0  0  0
 17 19  4  0  0  0  0
 14 19  4  0  0  0  0
 19 20  1  0  0  0  0
 20 21  1  0  0  0  0
 21 22  1  0  0  0  0
 22 23  1  0  0  0  0
 22 24  2  0  0  0  0
 20 25  1  0  0  0  0
 25 26  4  0  0  0  0
 26 27  4  0  0  0  0
 27 28  4  0  0  0  0
 28 29  1  0  0  0  0
 28 30  4  0  0  0  0
 30 31  4  0  0  0  0
 25 31  4  0  0  0  0
 12 32  4  0  0  0  0
 32 33  1  0  0  0  0
 32 34  4  0  0  0  0
 10 34  4  0  0  0  0
M  END
> <ID>
CPD_4167

$$$$
CPD_4172
  Mrv1822 09091914012D          

 18 19  0  0  0  0            999 V2000
   -0.7145    1.2375    0.0000 C   0  0  0  0  0  0  0  0  0  0  0  0
    0.0000    0.8250    0.0000 C   0  0  0  0  0  0  0  0  0  0  0  0
    0.0000   -0.0000    0.0000 O   0  0  0  0  0  0  0  0  0  0  0  0
    0.7145   -0.4125    0.0000 C   0  0  0  0  0  0  0  0  0  0  0  0
    1.4289   -0.0000    0.0000 O   0  0  0  0  0  0  0  0  0  0  0  0
    0.7145   -1.2375    0.0000 C   0  0  0  0  0  0  0  0  0  0  0  0
    1.3819   -1.7224    0.0000 N   0  0  0  0  0  0  0  0  0  0  0  0
    1.1270   -2.5070    0.0000 C   0  0  0  0  0  0  0  0  0  0  0  0
    0.3020   -2.5070    0.0000 N   0  0  0  0  0  0  0  0  0  0  0  0
    0.0470   -1.7224    0.0000 C   0  0  0  0  0  0  0  0  0  0  0  0
   -0.7376   -1.4675    0.0000 C   0  0  0  0  0  0  0  0  0  0  0  0
    1.6119   -3.1745    0.0000 N   0  0  0  0  0  0  0  0  0  0  0  0
    2.4324   -3.0882    0.0000 C   0  0  0  0  0  0  0  0  0  0  0  0
    2.9173   -3.7557    0.0000 C   0  0  0  0  0  0  0  0  0  0  0  0
    2.5817   -4.5094    0.0000 C   0  0  0  0  0  0  0  0  0  0  0  0
    3.0667   -5.1768    0.0000 C   0  0  0  0  0  0  0  0  0  0  0  0
    1.7613   -4.5956    0.0000 C   0  0  0  0  0  0  0  0  0  0  0  0
    1.2763   -3.9282    0.0000 C   0  0  0  0  0  0  0  0  0  0  0  0
  1  2  1  0  0  0  0
  2  3  1  0  0  0  0
  3  4  1  0  0  0  0
  4  5  2  0  0  0  0
  4  6  1  0  0  0  0
  6  7  4  0  0  0  0
  7  8  4  0  0  0  0
  8  9  4  0  0  0  0
  9 10  4  0  0  0  0
  6 10  4  0  0  0  0
 10 11  1  0  0  0  0
  8 12  1  0  0  0  0
 12 13  1  0  0  0  0
 13 14  1  0  0  0  0
 14 15  1  0  0  0  0
 15 16  1  0  0  0  0
 15 17  1  0  0  0  0
 17 18  1  0  0  0  0
 12 18  1  0  0  0  0
M  STY  1   1 DAT
M  SAL   1  1   7
M  SDT   1 MRV_IMPLICIT_H                                        
M  SDD   1     0.5304   -0.4125    DR    ALL  0       0  
M  SED   1 IMPL_H1
M  END
> <ID>
CPD_4172

$$$$
CPD_4177
  Mrv1822 09091914012D          

 24 25  0  0  0  0            999 V2000
   -2.7512   -0.0616    0.0000 C   0  0  0  0  0  0  0  0  0  0  0  0
   -2.0367   -0.4741    0.0000 C   0  0  0  0  0  0  0  0  0  0  0  0
   -2.0367   -1.2991    0.0000 O   0  0  0  0  0  0  0  0  0  0  0  0
   -1.3222   -1.7116    0.0000 C   0  0  0  0  0  0  0  0  0  0  0  0
   -0.6078   -1.2991    0.0000 O   0  0  0  0  0  0  0  0  0  0  0  0
   -1.3222   -2.5366    0.0000 C   0  0  0  0  0  0  0  0  0  0  0  0
   -0.6548   -3.0215    0.0000 N   0  0  0  0  0  0  0  0  0  0  0  0
   -0.9097   -3.8062    0.0000 C   0  0  0  0  0  0  0  0  0  0  0  0
   -0.4248   -4.4736    0.0000 N   0  0  0  0  0  0  0  0  0  0  0  0
    0.3957   -4.3874    0.0000 C   0  0  0  0  0  0  0  0  0  0  0  0
    0.7312   -3.6337    0.0000 N   0  0  0  0  0  0  0  0  0  0  0  0
    0.8806   -5.0548    0.0000 N   0  0  0  0  0  0  0  0  0  0  0  0
    1.7011   -4.9686    0.0000 C   0  0  0  0  0  0  0  0  0  0  0  0
    2.0366   -4.2149    0.0000 C   0  0  0  0  0  0  0  0  0  0  0  0
    2.8571   -4.1286    0.0000 C   0  0  0  0  0  0  0  0  0  0  0  0
    3.3420   -4.7961    0.0000 C   0  0  0  0  0  0  0  0  0  0  0  0
    3.0065   -5.5498    0.0000 C   0  0  0  0  0  0  0  0  0  0  0  0
    2.1860   -5.6360    0.0000 C   0  0  0  0  0  0  0  0  0  0  0  0
    1.8504   -6.3897    0.0000 O   0  0  0  0  0  0  0  0  0  0  0  0
    2.3354   -7.0571    0.0000 C   0  0  0  0  0  0  0  0  0  0  0  0
    3.1558   -6.9709    0.0000 C   0  0  0  0  0  0  0  0  0  0  0  0
   -1.7347   -3.8062    0.0000 N   0  0  0  0  0  0  0  0  0  0  0  0
   -1.9897   -3.0215    0.0000 C   0  0  0  0  0  0  0  0  0  0  0  0
   -2.7743   -2.7666    0.0000 C   0  0  0  0  0  0  0  0  0  0  0  0
  1  2  1  0  0  0  0
  2  3  1  0  0  0  0
  3  4  1  0  0  0  0
  4  5  2  0  0  0  0
  4  6  1  0  0  0  0
  6  7  4  0  0  0  0
  7  8  4  0  0  0  0
  8  9  1  0  0  0  0
  9 10  1  0  0  0  0
 10 11  2  0  0  0  0
 10 12  1  0  0  0  0
 12 13  1  0  0  0  0
 13 14  4  0  0  0  0
 14 15  4  0  0  0  0
 15 16  4  0  0  0  0
 16 17  4  0  0  0  0
 17 18  4  0  0  0  0
 13 18  4  0  0  0  0
 18 19  1  0  0  0  0
 19 20  1  0  0  0  0
 20 21  1  0  0  0  0
  8 22  4  0  0  0  0
 22 23  4  0  0  0  0
  6 23  4  0  0  0  0
 23 24  1  0  0  0  0
M  STY  1   1 DAT
M  SAL   1  1   7
M  SDT   1 MRV_IMPLICIT_H                                        
M  SDD   1     0.5304   -0.4125    DR    ALL  0       0  
M  SED   1 IMPL_H1
M  END
> <ID>
CPD_4177

$$$$
CPD_4182
  Mrv1822 09091914012D          

 22 23  0  0  1  0            999 V2000
    3.4656    0.3509    0.0000 C   0  0  0  0  0  0  0  0  0  0  0  0
    2.7512   -0.0616    0.0000 C   0  0  0  0  0  0  0  0  0  0  0  0
    2.7512   -0.8866    0.0000 C   0  0  2  0  0  0  0  0  0  0  0  0
    3.4656   -1.2991    0.0000 C   0  0  0  0  0  0  0  0  0  0  0  0
    2.0367   -1.2991    0.0000 C   0  0  2  0  0  0  0  0  0  0  0  0
    1.3222   -0.8866    0.0000 N   0  0  0  0  0  0  0  0  0  0  0  0
    2.0367   -2.1241    0.0000 C   0  0  0  0  0  0  0  0  0  0  0  0
    2.7041   -2.6090    0.0000 C   0  0  0  0  0  0  0  0  0  0  0  0
    2.4492   -3.3937    0.0000 N   0  0  0  0  0  0  0  0  0  0  0  0
    1.6242   -3.3937    0.0000 C   0  0  0  0  0  0  0  0  0  0  0  0
    1.1393   -4.0611    0.0000 N   0  0  0  0  0  0  0  0  0  0  0  0
    0.3188   -3.9749    0.0000 S   0  0  0  0  0  0  0  0  0  0  0  0
    0.4050   -3.1544    0.0000 O   0  0  0  0  0  0  0  0  0  0  0  0
    0.2326   -4.7953    0.0000 O   0  0  0  0  0  0  0  0  0  0  0  0
   -0.5017   -3.8886    0.0000 C   0  0  0  0  0  0  0  0  0  0  0  0
   -0.9866   -4.5561    0.0000 C   0  0  0  0  0  0  0  0  0  0  0  0
   -1.8071   -4.4698    0.0000 C   0  0  0  0  0  0  0  0  0  0  0  0
   -2.1426   -3.7161    0.0000 C   0  0  0  0  0  0  0  0  0  0  0  0
   -2.9631   -3.6299    0.0000 N   0  0  0  0  0  0  0  0  0  0  0  0
   -1.6577   -3.0487    0.0000 C   0  0  0  0  0  0  0  0  0  0  0  0
   -0.8372   -3.1349    0.0000 C   0  0  0  0  0  0  0  0  0  0  0  0
    1.3693   -2.6090    0.0000 N   0  0  0  0  0  0  0  0  0  0  0  0
  1  2  1  0  0  0  0
  3  2  1  0  0  0  0
  3  4  1  6  0  0  0
  3  5  1  0  0  0  0
  5  6  1  1  0  0  0
  5  7  1  0  0  0  0
  7  8  4  0  0  0  0
  8  9  4  0  0  0  0
  9 10  4  0  0  0  0
 10 11  1  0  0  0  0
 11 12  1  0  0  0  0
 12 13  2  0  0  0  0
 12 14  2  0  0  0  0
 12 15  1  0  0  0  0
 15 16  4  0  0  0  0
 16 17  4  0  0  0  0
 17 18  4  0  0  0  0
 18 19  1  0  0  0  0
 18 20  4  0  0  0  0
 20 21  4  0  0  0  0
 15 21  4  0  0  0  0
 10 22  4  0  0  0  0
  7 22  4  0  0  0  0
M  STY  1   1 DAT
M  SAL   1  1  22
M  SDT   1 MRV_IMPLICIT_H                                        
M  SDD   1     0.5304   -0.4125    DR    ALL  0       0  
M  SED   1 IMPL_H1
M  END
> <ID>
CPD_4182

$$$$
CPD_4187
  Mrv1822 09091914012D          

 24 25  0  0  0  0            999 V2000
   -7.5855    1.2491    0.0000 C   0  0  0  0  0  0  0  0  0  0  0  0
   -6.8710    1.6616    0.0000 O   0  0  0  0  0  0  0  0  0  0  0  0
   -6.1565    1.2491    0.0000 C   0  0  0  0  0  0  0  0  0  0  0  0
   -6.1565    0.4241    0.0000 O   0  0  0  0  0  0  0  0  0  0  0  0
   -5.4420    1.6616    0.0000 C   0  0  0  0  0  0  0  0  0  0  0  0
   -5.3558    2.4820    0.0000 C   0  0  0  0  0  0  0  0  0  0  0  0
   -4.5488    2.6536    0.0000 C   0  0  0  0  0  0  0  0  0  0  0  0
   -4.1363    1.9391    0.0000 C   0  0  0  0  0  0  0  0  0  0  0  0
   -4.6884    1.3260    0.0000 S   0  0  0  0  0  0  0  0  0  0  0  0
   -3.3159    1.8529    0.0000 C   0  0  0  0  0  0  0  0  0  0  0  0
   -2.7638    2.4660    0.0000 N   0  0  0  0  0  0  0  0  0  0  0  0
   -2.0101    2.1304    0.0000 C   0  0  0  0  0  0  0  0  0  0  0  0
   -1.2957    2.5429    0.0000 N   0  0  0  0  0  0  0  0  0  0  0  0
   -0.5812    2.1304    0.0000 C   0  0  0  0  0  0  0  0  0  0  0  0
    0.1333    2.5429    0.0000 C   0  0  0  0  0  0  0  0  0  0  0  0
    0.8477    2.1304    0.0000 C   0  0  0  0  0  0  0  0  0  0  0  0
    1.5622    2.5429    0.0000 C   0  0  0  0  0  0  0  0  0  0  0  0
    2.2767    2.1304    0.0000 C   0  0  0  0  0  0  0  0  0  0  0  0
    2.9912    2.5429    0.0000 C   0  0  0  0  0  0  0  0  0  0  0  0
    3.7056    2.1304    0.0000 C   0  0  0  0  0  0  0  0  0  0  0  0
    4.4201    2.5429    0.0000 N   0  0  0  0  0  0  0  0  0  0  0  0
   -2.0964    1.3099    0.0000 N   0  0  0  0  0  0  0  0  0  0  0  0
   -2.9034    1.1384    0.0000 C   0  0  0  0  0  0  0  0  0  0  0  0
   -3.2389    0.3847    0.0000 Br  0  0  0  0  0  0  0  0  0  0  0  0
  1  2  1  0  0  0  0
  2  3  1  0  0  0  0
  3  4  2  0  0  0  0
  3  5  1  0  0  0  0
  5  6  4  0  0  0  0
  6  7  4  0  0  0  0
  7  8  4  0  0  0  0
  8  9  4  0  0  0  0
  5  9  4  0  0  0  0
  8 10  1  0  0  0  0
 10 11  4  0  0  0  0
 11 12  4  0  0  0  0
 12 13  1  0  0  0  0
 13 14  1  0  0  0  0
 14 15  1  0  0  0  0
 15 16  1  0  0  0  0
 16 17  1  0  0  0  0
 17 18  1  0  0  0  0
 18 19  1  0  0  0  0
 19 20  1  0  0  0  0
 20 21  1  0  0  0  0
 12 22  4  0  0  0  0
 22 23  4  0  0  0  0
 10 23  4  0  0  0  0
 23 24  1  0  0  0  0
M  STY  1   1 DAT
M  SAL   1  1  11
M  SDT   1 MRV_IMPLICIT_H                                        
M  SDD   1     0.5304   -0.4125    DR    ALL  0       0  
M  SED   1 IMPL_H1
M  END
> <ID>
CPD_4187

$$$$
CPD_4192
  Mrv1822 09091914012D          

 33 36  0  0  0  0            999 V2000
    3.1920   -3.4274    0.0000 O   0  0  0  0  0  0  0  0  0  0  0  0
    3.9065   -3.8399    0.0000 C   0  0  0  0  0  0  0  0  0  0  0  0
    4.6209   -3.4274    0.0000 O   0  0  0  0  0  0  0  0  0  0  0  0
    3.9065   -4.6649    0.0000 C   0  0  0  0  0  0  0  0  0  0  0  0
    4.6209   -5.0774    0.0000 C   0  0  0  0  0  0  0  0  0  0  0  0
    4.6209   -5.9024    0.0000 C   0  0  0  0  0  0  0  0  0  0  0  0
    3.9065   -6.3149    0.0000 C   0  0  0  0  0  0  0  0  0  0  0  0
    3.1920   -5.9024    0.0000 C   0  0  0  0  0  0  0  0  0  0  0  0
    3.1920   -5.0774    0.0000 C   0  0  0  0  0  0  0  0  0  0  0  0
    3.9065   -7.1399    0.0000 C   0  0  0  0  0  0  0  0  0  0  0  0
    4.6209   -7.5524    0.0000 O   0  0  0  0  0  0  0  0  0  0  0  0
    3.1920   -7.5524    0.0000 N   0  0  0  0  0  0  0  0  0  0  0  0
    3.1920   -8.3774    0.0000 C   0  0  0  0  0  0  0  0  0  0  0  0
    2.4775   -8.7899    0.0000 C   0  0  0  0  0  0  0  0  0  0  0  0
    1.7630   -8.3774    0.0000 C   0  0  0  0  0  0  0  0  0  0  0  0
    1.7630   -7.5524    0.0000 C   0  0  0  0  0  0  0  0  0  0  0  0
    2.4775   -7.1399    0.0000 C   0  0  0  0  0  0  0  0  0  0  0  0
    1.0486   -8.7899    0.0000 N   0  0  0  0  0  0  0  0  0  0  0  0
    0.3341   -8.3774    0.0000 C   0  0  0  0  0  0  0  0  0  0  0  0
   -0.3804   -8.7899    0.0000 C   0  0  0  0  0  0  0  0  0  0  0  0
   -1.0948   -8.3774    0.0000 C   0  0  0  0  0  0  0  0  0  0  0  0
   -1.8093   -8.7899    0.0000 C   0  0  0  0  0  0  0  0  0  0  0  0
   -2.5238   -9.2024    0.0000 N   0  0  0  0  0  0  0  0  0  0  0  0
   -1.0948   -7.5524    0.0000 C   0  0  0  0  0  0  0  0  0  0  0  0
   -0.3804   -7.1399    0.0000 C   0  0  0  0  0  0  0  0  0  0  0  0
    0.3341   -7.5524    0.0000 C   0  0  0  0  0  0  0  0  0  0  0  0
   -1.8093   -7.1399    0.0000 N   0  0  0  0  0  0  0  0  0  0  0  0
   -2.4910   -7.6046    0.0000 C   0  0  0  0  0  0  0  0  0  0  0  0
   -3.2793   -7.3614    0.0000 C   0  0  0  0  0  0  0  0  0  0  0  0
   -3.5807   -6.5935    0.0000 C   0  0  0  0  0  0  0  0  0  0  0  0
   -3.1682   -5.8790    0.0000 C   0  0  0  0  0  0  0  0  0  0  0  0
   -2.3524   -5.7560    0.0000 C   0  0  0  0  0  0  0  0  0  0  0  0
   -1.7477   -6.3172    0.0000 C   0  0  0  0  0  0  0  0  0  0  0  0
  1  2  1  0  0  0  0
  2  3  2  0  0  0  0
  2  4  1  0  0  0  0
  4  5  2  0  0  0  0
  5  6  1  0  0  0  0
  6  7  2  0  0  0  0
  7  8  1  0  0  0  0
  8  9  2  0  0  0  0
  4  9  1  0  0  0  0
  7 10  1  0  0  0  0
 10 11  2  0  0  0  0
 10 12  1  0  0  0  0
 12 13  1  0  0  0  0
 13 14  1  0  0  0  0
 14 15  1  0  0  0  0
 15 16  1  0  0  0  0
 16 17  1  0  0  0  0
 12 17  1  0  0  0  0
 15 18  2  0  0  0  0
 18 19  1  0  0  0  0
 19 20  2  0  0  0  0
 20 21  1  0  0  0  0
 21 22  1  0  0  0  0
 22 23  3  0  0  0  0
 21 24  2  0  0  0  0
 24 25  1  0  0  0  0
 25 26  2  0  0  0  0
 19 26  1  0  0  0  0
 24 27  1  0  0  0  0
 27 28  1  0  0  0  0
 28 29  1  0  0  0  0
 29 30  1  0  0  0  0
 30 31  1  0  0  0  0
 31 32  1  0  0  0  0
 32 33  1  0  0  0  0
 27 33  1  0  0  0  0
M  END
> <ID>
CPD_4192

$$$$
CPD_4197
  Mrv1822 09091914012D          

 26 29  0  0  1  0            999 V2000
    1.4289   -0.0000    0.0000 H   0  0  0  0  0  0  0  0  0  0  0  0
    1.4289    0.8250    0.0000 C   0  0  2  0  0  0  0  0  0  0  0  0
    1.2227    1.6500    0.0000 C   0  0  0  0  0  0  0  0  0  0  0  0
    1.4289    2.4750    0.0000 C   0  0  1  0  0  0  0  0  0  0  0  0
    1.4289    3.3000    0.0000 H   0  0  0  0  0  0  0  0  0  0  0  0
    2.1434    2.0625    0.0000 C   0  0  0  0  0  0  0  0  0  0  0  0
    2.1434    1.2375    0.0000 C   0  0  0  0  0  0  0  0  0  0  0  0
    0.7145    2.0625    0.0000 C   0  0  1  0  0  0  0  0  0  0  0  0
   -0.0000    1.6500    0.0000 H   0  0  0  0  0  0  0  0  0  0  0  0
   -0.0000    2.4750    0.0000 C   0  0  0  0  0  0  0  0  0  0  0  0
   -0.7145    2.0625    0.0000 C   0  0  0  0  0  0  0  0  0  0  0  0
   -0.7145    1.2375    0.0000 C   0  0  0  0  0  0  0  0  0  0  0  0
   -0.0000    0.8250    0.0000 C   0  0  0  0  0  0  0  0  0  0  0  0
    0.0000   -0.0000    0.0000 O   0  0  0  0  0  0  0  0  0  0  0  0
    0.7145    1.2375    0.0000 C   0  0  1  0  0  0  0  0  0  0  0  0
    0.7145    0.4125    0.0000 H   0  0  0  0  0  0  0  0  0  0  0  0
   -0.0000    3.3000    0.0000 N   0  0  0  0  0  0  0  0  0  0  0  0
   -0.7145    3.7125    0.0000 C   0  0  0  0  0  0  0  0  0  0  0  0
   -0.7145    4.5375    0.0000 C   0  0  0  0  0  0  0  0  0  0  0  0
   -0.0000    4.9500    0.0000 O   0  0  0  0  0  0  0  0  0  0  0  0
   -1.4289    4.9500    0.0000 C   0  0  0  0  0  0  0  0  0  0  0  0
   -2.1434    4.5375    0.0000 C   0  0  0  0  0  0  0  0  0  0  0  0
   -2.1434    3.7125    0.0000 C   0  0  0  0  0  0  0  0  0  0  0  0
   -2.8579    3.3000    0.0000 C   0  0  0  0  0  0  0  0  0  0  0  0
   -1.4289    3.3000    0.0000 C   0  0  0  0  0  0  0  0  0  0  0  0
   -1.4289    2.4750    0.0000 Cl  0  0  0  0  0  0  0  0  0  0  0  0
  2  1  1  1  0  0  0
  2  3  1  0  0  0  0
  4  3  1  0  0  0  0
  4  5  1  1  0  0  0
  4  6  1  0  0  0  0
  6  7  2  0  0  0  0
  2  7  1  0  0  0  0
  8  4  1  0  0  0  0
  8  9  1  1  0  0  0
  8 10  1  0  0  0  0
 10 11  1  0  0  0  0
 11 12  2  0  0  0  0
 12 13  1  0  0  0  0
 13 14  2  0  0  0  0
 15 13  1  0  0  0  0
 15  2  1  0  0  0  0
  8 15  1  0  0  0  0
 15 16  1  1  0  0  0
 10 17  2  0  0  0  0
 17 18  1  4  0  0  0
 18 19  2  0  0  0  0
 19 20  1  0  0  0  0
 19 21  1  0  0  0  0
 21 22  2  0  0  0  0
 22 23  1  0  0  0  0
 23 24  1  0  0  0  0
 23 25  2  0  0  0  0
 18 25  1  0  0  0  0
 25 26  1  0  0  0  0
M  END
> <ID>
CPD_4197

$$$$
CPD_4202
  Mrv1822 09091914012D          

 40 45  0  0  1  0            999 V2000
    3.1508    0.8481    0.0000 H   0  0  0  0  0  0  0  0  0  0  0  0
    3.6826    0.2174    0.0000 C   0  0  2  0  0  0  0  0  0  0  0  0
    4.3340   -0.2889    0.0000 C   0  0  0  0  0  0  0  0  0  0  0  0
    5.0168    0.1741    0.0000 C   0  0  0  0  0  0  0  0  0  0  0  0
    4.7875    0.9666    0.0000 C   0  0  0  0  0  0  0  0  0  0  0  0
    5.2939    1.6179    0.0000 N   0  0  0  0  0  0  0  0  0  0  0  0
    6.1111    1.5050    0.0000 C   0  0  0  0  0  0  0  0  0  0  0  0
    6.6175    2.1564    0.0000 C   0  0  0  0  0  0  0  0  0  0  0  0
    7.4347    2.0435    0.0000 C   0  0  0  0  0  0  0  0  0  0  0  0
    7.7456    1.2793    0.0000 C   0  0  0  0  0  0  0  0  0  0  0  0
    8.5628    1.1665    0.0000 N   0  0  0  0  0  0  0  0  0  0  0  0
    8.8737    0.4023    0.0000 C   0  0  0  0  0  0  0  0  0  0  0  0
    8.3674   -0.2490    0.0000 C   0  0  0  0  0  0  0  0  0  0  0  0
    7.5501   -0.1362    0.0000 C   0  0  0  0  0  0  0  0  0  0  0  0
    7.0438   -0.7875    0.0000 O   0  0  0  0  0  0  0  0  0  0  0  0
    7.2392    0.6280    0.0000 C   0  0  0  0  0  0  0  0  0  0  0  0
    6.4220    0.7409    0.0000 C   0  0  0  0  0  0  0  0  0  0  0  0
    9.6910    0.2895    0.0000 C   0  0  0  0  0  0  0  0  0  0  0  0
   10.1973    0.9408    0.0000 O   0  0  0  0  0  0  0  0  0  0  0  0
   10.0019   -0.4747    0.0000 O   0  0  0  0  0  0  0  0  0  0  0  0
   10.8191   -0.5876    0.0000 C   0  0  0  0  0  0  0  0  0  0  0  0
    3.9629    0.9934    0.0000 C   0  0  2  0  0  0  0  0  0  0  0  0
    4.3228    1.7357    0.0000 C   0  0  0  0  0  0  0  0  0  0  0  0
    3.4311    1.6241    0.0000 C   0  0  0  0  0  0  0  0  0  0  0  0
    2.6190    1.4789    0.0000 C   0  0  0  0  0  0  0  0  0  0  0  0
    2.3387    0.7029    0.0000 C   0  0  1  0  0  0  0  0  0  0  0  0
    2.0584   -0.0730    0.0000 H   0  0  0  0  0  0  0  0  0  0  0  0
    2.8705    0.0722    0.0000 C   0  0  1  0  0  0  0  0  0  0  0  0
    3.4023   -0.5585    0.0000 H   0  0  0  0  0  0  0  0  0  0  0  0
    2.5902   -0.7037    0.0000 C   0  0  0  0  0  0  0  0  0  0  0  0
    1.7781   -0.8489    0.0000 C   0  0  0  0  0  0  0  0  0  0  0  0
    1.4978   -1.6248    0.0000 O   0  0  0  0  0  0  0  0  0  0  0  0
    1.2463   -0.2182    0.0000 C   0  0  0  0  0  0  0  0  0  0  0  0
    0.4342   -0.3634    0.0000 C   0  0  0  0  0  0  0  0  0  0  0  0
   -0.0976    0.2673    0.0000 C   0  0  0  0  0  0  0  0  0  0  0  0
   -0.9098    0.1221    0.0000 O   0  0  0  0  0  0  0  0  0  0  0  0
    0.1827    1.0432    0.0000 C   0  0  0  0  0  0  0  0  0  0  0  0
    0.9948    1.1884    0.0000 C   0  0  0  0  0  0  0  0  0  0  0  0
    1.5266    0.5577    0.0000 C   0  0  2  0  0  0  0  0  0  0  0  0
    1.8069    1.3336    0.0000 C   0  0  0  0  0  0  0  0  0  0  0  0
  2  1  1  6  0  0  0
  2  3  1  0  0  0  0
  3  4  1  0  0  0  0
  4  5  1  0  0  0  0
  5  6  2  0  0  0  0
  6  7  1  4  0  0  0
  7  8  2  0  0  0  0
  8  9  1  0  0  0  0
  9 10  2  0  0  0  0
 10 11  1  0  0  0  0
 11 12  1  0  0  0  0
 12 13  2  0  0  0  0
 13 14  1  0  0  0  0
 14 15  2  0  0  0  0
 14 16  1  0  0  0  0
 10 16  1  0  0  0  0
 16 17  2  0  0  0  0
  7 17  1  0  0  0  0
 12 18  1  0  0  0  0
 18 19  2  0  0  0  0
 18 20  1  0  0  0  0
 20 21  1  0  0  0  0
 22  5  1  0  0  0  0
  2 22  1  0  0  0  0
 22 23  1  1  0  0  0
 22 24  1  0  0  0  0
 24 25  1  0  0  0  0
 26 25  1  0  0  0  0
 26 27  1  6  0  0  0
 28 26  1  0  0  0  0
  2 28  1  0  0  0  0
 28 29  1  1  0  0  0
 28 30  1  0  0  0  0
 30 31  1  0  0  0  0
 31 32  2  0  0  0  0
 31 33  1  0  0  0  0
 33 34  2  0  0  0  0
 34 35  1  0  0  0  0
 35 36  2  0  0  0  0
 35 37  1  0  0  0  0
 37 38  2  0  0  0  0
 39 38  1  0  0  0  0
 26 39  1  0  0  0  0
 39 33  1  0  0  0  0
 39 40  1  1  0  0  0
M  END
> <ID>
CPD_4202

$$$$
CPD_4207
  Mrv1822 09091914012D          

 22 22  0  0  0  0            999 V2000
    0.7145   -1.2375    0.0000 C   0  0  0  0  0  0  0  0  0  0  0  0
    0.7145   -0.4125    0.0000 C   0  0  0  0  0  0  0  0  0  0  0  0
    0.0000    0.0000    0.0000 C   0  0  0  0  0  0  0  0  0  0  0  0
    0.0000    0.8250    0.0000 C   0  0  0  0  0  0  0  0  0  0  0  0
    0.7145    1.2375    0.0000 C   0  0  0  0  0  0  0  0  0  0  0  0
    1.4289    0.8250    0.0000 C   0  0  0  0  0  0  0  0  0  0  0  0
    1.4289    0.0000    0.0000 C   0  0  0  0  0  0  0  0  0  0  0  0
    2.1434   -0.4125    0.0000 N   0  0  0  0  0  0  0  0  0  0  0  0
    2.8579    0.0000    0.0000 C   0  0  0  0  0  0  0  0  0  0  0  0
    3.5724   -0.4125    0.0000 C   0  0  0  0  0  0  0  0  0  0  0  0
    4.2868    0.0000    0.0000 O   0  0  0  0  0  0  0  0  0  0  0  0
    5.0013   -0.4125    0.0000 C   0  0  0  0  0  0  0  0  0  0  0  0
    5.7158    0.0000    0.0000 C   0  0  0  0  0  0  0  0  0  0  0  0
    6.4302   -0.4125    0.0000 O   0  0  0  0  0  0  0  0  0  0  0  0
    7.1447    0.0000    0.0000 C   0  0  0  0  0  0  0  0  0  0  0  0
    7.8592   -0.4125    0.0000 C   0  0  0  0  0  0  0  0  0  0  0  0
    8.5737    0.0000    0.0000 O   0  0  0  0  0  0  0  0  0  0  0  0
    9.2881   -0.4125    0.0000 C   0  0  0  0  0  0  0  0  0  0  0  0
   10.0026    0.0000    0.0000 C   0  0  0  0  0  0  0  0  0  0  0  0
   10.7171   -0.4125    0.0000 C   0  0  0  0  0  0  0  0  0  0  0  0
   11.4315    0.0000    0.0000 O   0  0  0  0  0  0  0  0  0  0  0  0
   10.7171   -1.2375    0.0000 O   0  0  0  0  0  0  0  0  0  0  0  0
  1  2  1  0  0  0  0
  2  3  1  0  0  0  0
  3  4  1  0  0  0  0
  4  5  1  0  0  0  0
  5  6  1  0  0  0  0
  6  7  1  0  0  0  0
  2  7  1  0  0  0  0
  7  8  2  0  0  0  0
  8  9  1  4  0  0  0
  9 10  1  0  0  0  0
 10 11  1  0  0  0  0
 11 12  1  0  0  0  0
 12 13  1  0  0  0  0
 13 14  1  0  0  0  0
 14 15  1  0  0  0  0
 15 16  1  0  0  0  0
 16 17  1  0  0  0  0
 17 18  1  0  0  0  0
 18 19  1  0  0  0  0
 19 20  1  0  0  0  0
 20 21  1  0  0  0  0
 20 22  2  0  0  0  0
M  END
> <ID>
CPD_4207

$$$$
CPD_4212
  Mrv1822 09091914012D          

 30 33  0  0  0  0            999 V2000
    1.4780   -4.9454    0.0000 C   0  0  0  0  0  0  0  0  0  0  0  0
    1.7329   -4.1608    0.0000 C   0  0  0  0  0  0  0  0  0  0  0  0
    1.1809   -3.5477    0.0000 N   0  0  0  0  0  0  0  0  0  0  0  0
    0.3739   -3.7192    0.0000 C   0  0  0  0  0  0  0  0  0  0  0  0
   -0.1781   -3.1062    0.0000 C   0  0  0  0  0  0  0  0  0  0  0  0
    1.4358   -2.7631    0.0000 C   0  0  0  0  0  0  0  0  0  0  0  0
    2.2428   -2.5916    0.0000 O   0  0  0  0  0  0  0  0  0  0  0  0
    0.8838   -2.1500    0.0000 C   0  0  0  0  0  0  0  0  0  0  0  0
    1.1387   -1.3654    0.0000 N   0  0  0  0  0  0  0  0  0  0  0  0
    0.6538   -0.6979    0.0000 C   0  0  0  0  0  0  0  0  0  0  0  0
   -0.1712   -0.6979    0.0000 O   0  0  0  0  0  0  0  0  0  0  0  0
    1.1387   -0.0305    0.0000 C   0  0  0  0  0  0  0  0  0  0  0  0
    0.8838    0.7541    0.0000 N   0  0  0  0  0  0  0  0  0  0  0  0
    1.4358    1.3672    0.0000 C   0  0  0  0  0  0  0  0  0  0  0  0
    1.1809    2.1518    0.0000 C   0  0  0  0  0  0  0  0  0  0  0  0
    1.7329    2.7649    0.0000 N   0  0  0  0  0  0  0  0  0  0  0  0
    2.5399    2.5934    0.0000 C   0  0  0  0  0  0  0  0  0  0  0  0
    3.0919    3.2065    0.0000 N   0  0  0  0  0  0  0  0  0  0  0  0
    3.8989    3.0350    0.0000 C   0  0  0  0  0  0  0  0  0  0  0  0
    4.6835    3.2899    0.0000 C   0  0  0  0  0  0  0  0  0  0  0  0
    4.5120    2.4829    0.0000 C   0  0  0  0  0  0  0  0  0  0  0  0
    2.7948    1.8088    0.0000 C   0  0  0  0  0  0  0  0  0  0  0  0
    3.6018    1.6373    0.0000 Br  0  0  0  0  0  0  0  0  0  0  0  0
    2.2428    1.1957    0.0000 C   0  0  0  0  0  0  0  0  0  0  0  0
    1.9233   -0.2854    0.0000 C   0  0  0  0  0  0  0  0  0  0  0  0
    2.6378    0.1271    0.0000 C   0  0  0  0  0  0  0  0  0  0  0  0
    3.3523   -0.2854    0.0000 C   0  0  0  0  0  0  0  0  0  0  0  0
    3.3523   -1.1104    0.0000 C   0  0  0  0  0  0  0  0  0  0  0  0
    2.6378   -1.5229    0.0000 C   0  0  0  0  0  0  0  0  0  0  0  0
    1.9233   -1.1104    0.0000 C   0  0  0  0  0  0  0  0  0  0  0  0
  1  2  1  0  0  0  0
  2  3  1  0  0  0  0
  3  4  1  0  0  0  0
  4  5  1  0  0  0  0
  3  6  1  0  0  0  0
  6  7  2  0  0  0  0
  6  8  1  0  0  0  0
  8  9  1  0  0  0  0
  9 10  1  0  0  0  0
 10 11  2  0  0  0  0
 10 12  1  0  0  0  0
 12 13  2  0  0  0  0
 13 14  1  4  0  0  0
 14 15  2  0  0  0  0
 15 16  1  0  0  0  0
 16 17  2  0  0  0  0
 17 18  1  0  0  0  0
 18 19  1  0  0  0  0
 19 20  1  0  0  0  0
 20 21  1  0  0  0  0
 19 21  1  0  0  0  0
 17 22  1  0  0  0  0
 22 23  1  0  0  0  0
 22 24  2  0  0  0  0
 14 24  1  0  0  0  0
 12 25  1  0  0  0  0
 25 26  2  0  0  0  0
 26 27  1  0  0  0  0
 27 28  2  0  0  0  0
 28 29  1  0  0  0  0
 29 30  2  0  0  0  0
  9 30  1  0  0  0  0
 25 30  1  0  0  0  0
M  END
> <ID>
CPD_4212

$$$$
CPD_4217
  Mrv1822 09091914012D          

 27 28  0  0  1  0            999 V2000
   -2.2501    6.0027    0.0000 C   0  0  0  0  0  0  0  0  0  0  0  0
   -1.5356    5.5902    0.0000 O   0  0  0  0  0  0  0  0  0  0  0  0
   -0.8212    6.0027    0.0000 C   0  0  0  0  0  0  0  0  0  0  0  0
   -0.8212    6.8277    0.0000 O   0  0  0  0  0  0  0  0  0  0  0  0
   -0.1067    5.5902    0.0000 C   0  0  1  0  0  0  0  0  0  0  0  0
    0.6078    6.0027    0.0000 C   0  0  0  0  0  0  0  0  0  0  0  0
    1.3222    5.5902    0.0000 C   0  0  0  0  0  0  0  0  0  0  0  0
    1.3222    4.7652    0.0000 C   0  0  0  0  0  0  0  0  0  0  0  0
    0.6078    4.3527    0.0000 C   0  0  0  0  0  0  0  0  0  0  0  0
   -0.1067    4.7652    0.0000 N   0  0  0  0  0  0  0  0  0  0  0  0
   -0.8212    4.3527    0.0000 C   0  0  0  0  0  0  0  0  0  0  0  0
   -1.5356    4.7652    0.0000 O   0  0  0  0  0  0  0  0  0  0  0  0
   -0.8212    3.5277    0.0000 O   0  0  0  0  0  0  0  0  0  0  0  0
   -1.5356    3.1152    0.0000 C   0  0  0  0  0  0  0  0  0  0  0  0
   -1.9481    3.8297    0.0000 C   0  0  0  0  0  0  0  0  0  0  0  0
   -1.1231    2.4007    0.0000 C   0  0  0  0  0  0  0  0  0  0  0  0
   -2.2501    2.7027    0.0000 C   0  0  0  0  0  0  0  0  0  0  0  0
    2.0367    4.3527    0.0000 N   0  0  0  0  0  0  0  0  0  0  0  0
    2.0367    3.5277    0.0000 C   0  0  0  0  0  0  0  0  0  0  0  0
    2.7041    3.0428    0.0000 C   0  0  0  0  0  0  0  0  0  0  0  0
    3.4888    3.2977    0.0000 C   0  0  0  0  0  0  0  0  0  0  0  0
    3.6603    4.1047    0.0000 C   0  0  0  0  0  0  0  0  0  0  0  0
    4.1019    2.7457    0.0000 O   0  0  0  0  0  0  0  0  0  0  0  0
    2.4492    2.2581    0.0000 C   0  0  0  0  0  0  0  0  0  0  0  0
    2.9341    1.5907    0.0000 C   0  0  0  0  0  0  0  0  0  0  0  0
    1.6242    2.2581    0.0000 N   0  0  0  0  0  0  0  0  0  0  0  0
    1.3693    3.0428    0.0000 N   0  0  0  0  0  0  0  0  0  0  0  0
  1  2  1  0  0  0  0
  2  3  1  0  0  0  0
  3  4  2  0  0  0  0
  5  3  1  1  0  0  0
  5  6  1  0  0  0  0
  6  7  1  0  0  0  0
  7  8  1  0  0  0  0
  8  9  1  0  0  0  0
  9 10  1  0  0  0  0
  5 10  1  0  0  0  0
 10 11  1  0  0  0  0
 11 12  2  0  0  0  0
 11 13  1  0  0  0  0
 13 14  1  0  0  0  0
 14 15  1  0  0  0  0
 14 16  1  0  0  0  0
 14 17  1  0  0  0  0
  8 18  2  0  0  0  0
 18 19  1  4  0  0  0
 19 20  2  0  0  0  0
 20 21  1  0  0  0  0
 21 22  1  0  0  0  0
 21 23  2  0  0  0  0
 20 24  1  0  0  0  0
 24 25  1  0  0  0  0
 24 26  2  0  0  0  0
 26 27  1  0  0  0  0
 19 27  1  0  0  0  0
M  END
> <ID>
CPD_4217

$$$$
CPD_4222
  Mrv1822 09091914012D          

 25 28  0  0  0  0            999 V2000
    4.2868   -4.1250    0.0000 C   0  0  0  0  0  0  0  0  0  0  0  0
    3.5724   -3.7125    0.0000 C   0  0  0  0  0  0  0  0  0  0  0  0
    3.5724   -2.8875    0.0000 C   0  0  0  0  0  0  0  0  0  0  0  0
    2.8579   -2.4750    0.0000 N   0  0  0  0  0  0  0  0  0  0  0  0
    2.8579   -1.6500    0.0000 C   0  0  0  0  0  0  0  0  0  0  0  0
    2.1434   -1.2375    0.0000 N   0  0  0  0  0  0  0  0  0  0  0  0
    2.1434   -0.4125    0.0000 C   0  0  0  0  0  0  0  0  0  0  0  0
    2.8579   -0.0000    0.0000 C   0  0  0  0  0  0  0  0  0  0  0  0
    3.5724   -0.4125    0.0000 C   0  0  0  0  0  0  0  0  0  0  0  0
    4.2868    0.0000    0.0000 C   0  0  0  0  0  0  0  0  0  0  0  0
    5.0013   -0.4125    0.0000 Cl  0  0  0  0  0  0  0  0  0  0  0  0
    4.2868    0.8250    0.0000 C   0  0  0  0  0  0  0  0  0  0  0  0
    3.5724    1.2375    0.0000 C   0  0  0  0  0  0  0  0  0  0  0  0
    2.8579    0.8250    0.0000 C   0  0  0  0  0  0  0  0  0  0  0  0
    2.1434    1.2375    0.0000 C   0  0  0  0  0  0  0  0  0  0  0  0
    2.1434    2.0625    0.0000 O   0  0  0  0  0  0  0  0  0  0  0  0
    1.4289    0.8250    0.0000 C   0  0  0  0  0  0  0  0  0  0  0  0
    1.4289    0.0000    0.0000 C   0  0  0  0  0  0  0  0  0  0  0  0
    0.7145   -0.4125    0.0000 C   0  0  0  0  0  0  0  0  0  0  0  0
    0.0000   -0.0000    0.0000 C   0  0  0  0  0  0  0  0  0  0  0  0
    0.0000    0.8250    0.0000 C   0  0  0  0  0  0  0  0  0  0  0  0
    0.7145    1.2375    0.0000 C   0  0  0  0  0  0  0  0  0  0  0  0
    3.5724   -1.2375    0.0000 N   0  0  0  0  0  0  0  0  0  0  0  0
    4.2868   -1.6500    0.0000 C   0  0  0  0  0  0  0  0  0  0  0  0
    4.2868   -2.4750    0.0000 C   0  0  0  0  0  0  0  0  0  0  0  0
  1  2  1  0  0  0  0
  2  3  1  0  0  0  0
  3  4  2  0  0  0  0
  4  5  1  0  0  0  0
  6  5  1  4  0  0  0
  6  7  2  0  0  0  0
  7  8  1  0  0  0  0
  8  9  2  0  0  0  0
  9 10  1  0  0  0  0
 10 11  1  0  0  0  0
 10 12  2  0  0  0  0
 12 13  1  0  0  0  0
 13 14  2  0  0  0  0
  8 14  1  0  0  0  0
 14 15  1  0  0  0  0
 15 16  2  0  0  0  0
 15 17  1  0  0  0  0
 17 18  2  0  0  0  0
  7 18  1  0  0  0  0
 18 19  1  0  0  0  0
 19 20  2  0  0  0  0
 20 21  1  0  0  0  0
 21 22  2  0  0  0  0
 17 22  1  0  0  0  0
  5 23  2  0  0  0  0
 23 24  1  0  0  0  0
 24 25  2  0  0  0  0
  3 25  1  0  0  0  0
M  END
> <ID>
CPD_4222

$$$$
CPD_4227
  Mrv1822 09091914012D          

 31 36  0  0  0  0            999 V2000
    2.8579   -4.1250    0.0000 C   0  0  0  0  0  0  0  0  0  0  0  0
    2.1434   -3.7125    0.0000 O   0  0  0  0  0  0  0  0  0  0  0  0
    2.1434   -2.8875    0.0000 C   0  0  0  0  0  0  0  0  0  0  0  0
    1.4289   -2.4750    0.0000 C   0  0  0  0  0  0  0  0  0  0  0  0
    1.4591   -1.5373    0.0000 C   0  0  0  0  0  0  0  0  0  0  0  0
    2.1434   -1.2375    0.0000 C   0  0  0  0  0  0  0  0  0  0  0  0
    2.8579   -1.6500    0.0000 C   0  0  0  0  0  0  0  0  0  0  0  0
    2.8579   -2.4750    0.0000 C   0  0  0  0  0  0  0  0  0  0  0  0
    2.1434   -0.4125    0.0000 C   0  0  0  0  0  0  0  0  0  0  0  0
    2.8579   -0.0000    0.0000 N   0  0  0  0  0  0  0  0  0  0  0  0
    3.6425   -0.2549    0.0000 N   0  0  0  0  0  0  0  0  0  0  0  0
    4.1274    0.4125    0.0000 N   0  0  0  0  0  0  0  0  0  0  0  0
    3.6425    1.0799    0.0000 N   0  0  0  0  0  0  0  0  0  0  0  0
    2.8579    0.8250    0.0000 C   0  0  0  0  0  0  0  0  0  0  0  0
    2.1434    1.2375    0.0000 N   0  0  0  0  0  0  0  0  0  0  0  0
    1.4289    0.8250    0.0000 C   0  0  0  0  0  0  0  0  0  0  0  0
    1.4289    0.0000    0.0000 C   0  0  0  0  0  0  0  0  0  0  0  0
    0.7145   -0.4125    0.0000 C   0  0  0  0  0  0  0  0  0  0  0  0
    0.0000   -0.0000    0.0000 C   0  0  0  0  0  0  0  0  0  0  0  0
    0.0000    0.8250    0.0000 C   0  0  0  0  0  0  0  0  0  0  0  0
   -0.8613    0.8569    0.0000 C   0  0  0  0  0  0  0  0  0  0  0  0
   -0.3898    1.6151    0.0000 C   0  0  0  0  0  0  0  0  0  0  0  0
    0.7145    1.2375    0.0000 C   0  0  0  0  0  0  0  0  0  0  0  0
    0.7145   -1.2375    0.0000 N   0  0  0  0  0  0  0  0  0  0  0  0
    1.2978   -1.8209    0.0000 C   0  0  0  0  0  0  0  0  0  0  0  0
    0.7145   -2.4042    0.0000 C   0  0  0  0  0  0  0  0  0  0  0  0
    1.2978   -2.9876    0.0000 O   0  0  0  0  0  0  0  0  0  0  0  0
    0.1311   -1.8209    0.0000 C   0  0  0  0  0  0  0  0  0  0  0  0
    0.1311   -2.9876    0.0000 C   0  0  0  0  0  0  0  0  0  0  0  0
   -0.0824   -3.7845    0.0000 C   0  0  0  0  0  0  0  0  0  0  0  0
   -0.6658   -3.2011    0.0000 C   0  0  0  0  0  0  0  0  0  0  0  0
  1  2  1  0  0  0  0
  2  3  1  0  0  0  0
  3  4  2  0  0  0  0
  4  5  1  0  0  0  0
  5  6  2  0  0  0  0
  6  7  1  0  0  0  0
  7  8  2  0  0  0  0
  3  8  1  0  0  0  0
  6  9  1  0  0  0  0
  9 10  1  0  0  0  0
 10 11  1  0  0  0  0
 11 12  2  0  0  0  0
 12 13  1  0  0  0  0
 13 14  2  0  0  0  0
 10 14  1  0  0  0  0
 14 15  1  0  0  0  0
 15 16  1  0  0  0  0
 16 17  2  0  0  0  0
  9 17  1  0  0  0  0
 17 18  1  0  0  0  0
 18 19  2  0  0  0  0
 19 20  1  0  0  0  0
 20 21  1  0  0  0  0
 20 22  1  0  0  0  0
 20 23  1  0  0  0  0
 16 23  1  0  0  0  0
 18 24  1  0  0  0  0
 24 25  1  0  0  0  0
 25 26  1  0  0  0  0
 26 27  1  0  0  0  0
 26 28  1  0  0  0  0
 24 28  1  0  0  0  0
 26 29  1  0  0  0  0
 29 30  1  0  0  0  0
 30 31  1  0  0  0  0
 29 31  1  0  0  0  0
M  END
> <ID>
CPD_4227

$$$$
CPD_4232
  Mrv1822 09091914012D          

 27 29  0  0  0  0            999 V2000
   -3.5724    4.5375    0.0000 C   0  0  0  0  0  0  0  0  0  0  0  0
   -2.8579    4.9500    0.0000 O   0  0  0  0  0  0  0  0  0  0  0  0
   -2.1434    4.5375    0.0000 C   0  0  0  0  0  0  0  0  0  0  0  0
   -1.4289    4.9500    0.0000 C   0  0  0  0  0  0  0  0  0  0  0  0
   -0.7145    4.5375    0.0000 C   0  0  0  0  0  0  0  0  0  0  0  0
   -0.7145    3.7125    0.0000 C   0  0  0  0  0  0  0  0  0  0  0  0
   -1.4289    3.3000    0.0000 C   0  0  0  0  0  0  0  0  0  0  0  0
   -2.1434    3.7125    0.0000 C   0  0  0  0  0  0  0  0  0  0  0  0
    0.0000    3.3000    0.0000 S   0  0  0  0  0  0  0  0  0  0  0  0
   -0.4125    2.5855    0.0000 O   0  0  0  0  0  0  0  0  0  0  0  0
    0.4125    4.0145    0.0000 O   0  0  0  0  0  0  0  0  0  0  0  0
    0.7145    2.8875    0.0000 N   0  0  0  0  0  0  0  0  0  0  0  0
    1.4289    3.3000    0.0000 C   0  0  0  0  0  0  0  0  0  0  0  0
    2.1434    2.8875    0.0000 C   0  0  0  0  0  0  0  0  0  0  0  0
    2.8579    3.3000    0.0000 C   0  0  0  0  0  0  0  0  0  0  0  0
    2.9441    4.1205    0.0000 N   0  0  0  0  0  0  0  0  0  0  0  0
    3.7511    4.2920    0.0000 N   0  0  0  0  0  0  0  0  0  0  0  0
    4.1636    3.5775    0.0000 C   0  0  0  0  0  0  0  0  0  0  0  0
    4.9841    3.4913    0.0000 N   0  0  0  0  0  0  0  0  0  0  0  0
    3.6116    2.9644    0.0000 S   0  0  0  0  0  0  0  0  0  0  0  0
    0.7145    2.0625    0.0000 C   0  0  0  0  0  0  0  0  0  0  0  0
    1.3819    1.5776    0.0000 C   0  0  0  0  0  0  0  0  0  0  0  0
    1.1270    0.7930    0.0000 C   0  0  0  0  0  0  0  0  0  0  0  0
    0.3020    0.7930    0.0000 C   0  0  0  0  0  0  0  0  0  0  0  0
   -0.1830    0.1255    0.0000 C   0  0  0  0  0  0  0  0  0  0  0  0
    0.0470    1.5776    0.0000 C   0  0  0  0  0  0  0  0  0  0  0  0
   -0.7376    1.8325    0.0000 O   0  0  0  0  0  0  0  0  0  0  0  0
  1  2  1  0  0  0  0
  2  3  1  0  0  0  0
  3  4  2  0  0  0  0
  4  5  1  0  0  0  0
  5  6  2  0  0  0  0
  6  7  1  0  0  0  0
  7  8  2  0  0  0  0
  3  8  1  0  0  0  0
  6  9  1  0  0  0  0
  9 10  2  0  0  0  0
  9 11  2  0  0  0  0
  9 12  1  0  0  0  0
 12 13  1  0  0  0  0
 13 14  1  0  0  0  0
 14 15  1  0  0  0  0
 15 16  2  0  0  0  0
 16 17  1  0  0  0  0
 17 18  2  0  0  0  0
 18 19  1  0  0  0  0
 18 20  1  0  0  0  0
 15 20  1  0  0  0  0
 12 21  1  0  0  0  0
 21 22  2  0  0  0  0
 22 23  1  0  0  0  0
 23 24  1  0  0  0  0
 24 25  1  0  0  0  0
 24 26  2  0  0  0  0
 21 26  1  0  0  0  0
 26 27  1  0  0  0  0
M  END
> <ID>
CPD_4232

$$$$
CPD_4237
  Mrv1822 09091914012D          

 23 25  0  0  0  0            999 V2000
    1.4289    0.0000    0.0000 C   0  0  0  0  0  0  0  0  0  0  0  0
    2.1434   -0.4125    0.0000 N   0  0  0  0  0  0  0  0  0  0  0  0
    2.1434   -1.2375    0.0000 C   0  0  0  0  0  0  0  0  0  0  0  0
    2.8579   -1.6500    0.0000 N   0  0  0  0  0  0  0  0  0  0  0  0
    2.8579   -2.4750    0.0000 C   0  0  0  0  0  0  0  0  0  0  0  0
    2.1434   -2.8875    0.0000 N   0  0  0  0  0  0  0  0  0  0  0  0
    1.4289   -2.4750    0.0000 C   0  0  0  0  0  0  0  0  0  0  0  0
    0.7145   -2.8875    0.0000 C   0  0  0  0  0  0  0  0  0  0  0  0
    0.7145   -3.7125    0.0000 C   0  0  0  0  0  0  0  0  0  0  0  0
    1.4289   -4.1250    0.0000 C   0  0  0  0  0  0  0  0  0  0  0  0
    1.4289   -4.9500    0.0000 C   0  0  0  0  0  0  0  0  0  0  0  0
    0.7145   -5.3625    0.0000 C   0  0  0  0  0  0  0  0  0  0  0  0
    0.0000   -4.9500    0.0000 N   0  0  0  0  0  0  0  0  0  0  0  0
    0.0000   -4.1250    0.0000 C   0  0  0  0  0  0  0  0  0  0  0  0
    1.4289   -1.6500    0.0000 C   0  0  0  0  0  0  0  0  0  0  0  0
    2.8579    0.0000    0.0000 C   0  0  0  0  0  0  0  0  0  0  0  0
    2.8579    0.8250    0.0000 C   0  0  0  0  0  0  0  0  0  0  0  0
    3.5724    1.2375    0.0000 C   0  0  0  0  0  0  0  0  0  0  0  0
    4.2868    0.8250    0.0000 C   0  0  0  0  0  0  0  0  0  0  0  0
    5.0013    1.2375    0.0000 O   0  0  0  0  0  0  0  0  0  0  0  0
    4.2868    0.0000    0.0000 C   0  0  0  0  0  0  0  0  0  0  0  0
    5.0013   -0.4125    0.0000 C   0  0  0  0  0  0  0  0  0  0  0  0
    3.5724   -0.4125    0.0000 C   0  0  0  0  0  0  0  0  0  0  0  0
  1  2  1  0  0  0  0
  2  3  1  0  0  0  0
  3  4  2  0  0  0  0
  4  5  1  0  0  0  0
  5  6  2  0  0  0  0
  6  7  1  0  0  0  0
  7  8  1  0  0  0  0
  8  9  1  0  0  0  0
  9 10  1  0  0  0  0
 10 11  1  0  0  0  0
 11 12  1  0  0  0  0
 12 13  1  0  0  0  0
 13 14  1  0  0  0  0
  9 14  1  0  0  0  0
  7 15  2  0  0  0  0
  3 15  1  0  0  0  0
  2 16  1  0  0  0  0
 16 17  2  0  0  0  0
 17 18  2  0  0  0  0
 18 19  1  0  0  0  0
 19 20  2  0  0  0  0
 19 21  1  0  0  0  0
 21 22  1  0  0  0  0
 21 23  2  0  0  0  0
 16 23  1  0  0  0  0
M  END
> <ID>
CPD_4237

$$$$
CPD_4242
  Mrv1822 09091914012D          

 19 21  0  0  0  0            999 V2000
    0.0000    0.8250    0.0000 C   0  0  0  0  0  0  0  0  0  0  0  0
    0.0000   -0.0000    0.0000 N   0  0  0  0  0  0  0  0  0  0  0  0
   -0.7145   -0.4125    0.0000 C   0  0  0  0  0  0  0  0  0  0  0  0
   -0.7145   -1.2375    0.0000 C   0  0  0  0  0  0  0  0  0  0  0  0
    0.0000   -1.6500    0.0000 N   0  0  0  0  0  0  0  0  0  0  0  0
    0.0000   -2.4750    0.0000 C   0  0  0  0  0  0  0  0  0  0  0  0
    0.7145   -2.8875    0.0000 C   0  0  0  0  0  0  0  0  0  0  0  0
    1.4289   -2.4750    0.0000 C   0  0  0  0  0  0  0  0  0  0  0  0
    2.1434   -2.8875    0.0000 C   0  0  0  0  0  0  0  0  0  0  0  0
    2.1434   -3.7125    0.0000 N   0  0  0  0  0  0  0  0  0  0  0  0
    1.4289   -4.1250    0.0000 C   0  0  0  0  0  0  0  0  0  0  0  0
    0.7145   -3.7125    0.0000 C   0  0  0  0  0  0  0  0  0  0  0  0
    0.7145   -1.2375    0.0000 C   0  0  0  0  0  0  0  0  0  0  0  0
    0.7145   -0.4125    0.0000 C   0  0  0  0  0  0  0  0  0  0  0  0
    1.4289   -0.0000    0.0000 C   0  0  0  0  0  0  0  0  0  0  0  0
    2.1434   -0.4125    0.0000 C   0  0  0  0  0  0  0  0  0  0  0  0
    2.1434   -1.2375    0.0000 C   0  0  0  0  0  0  0  0  0  0  0  0
    2.8579   -1.6500    0.0000 Br  0  0  0  0  0  0  0  0  0  0  0  0
    1.4289   -1.6500    0.0000 C   0  0  0  0  0  0  0  0  0  0  0  0
  1  2  1  0  0  0  0
  2  3  1  0  0  0  0
  3  4  1  0  0  0  0
  4  5  1  0  0  0  0
  5  6  1  0  0  0  0
  6  7  2  0  0  0  0
  7  8  1  0  0  0  0
  8  9  1  0  0  0  0
  9 10  1  0  0  0  0
 10 11  1  0  0  0  0
 11 12  1  0  0  0  0
  7 12  1  0  0  0  0
  5 13  1  0  0  0  0
 13 14  2  0  0  0  0
  2 14  1  0  0  0  0
 14 15  1  0  0  0  0
 15 16  2  0  0  0  0
 16 17  1  0  0  0  0
 17 18  1  0  0  0  0
 17 19  2  0  0  0  0
 13 19  1  0  0  0  0
M  END
> <ID>
CPD_4242

$$$$
CPD_4247
  Mrv1822 09091914012D          

 24 27  0  0  0  0            999 V2000
    9.3880    0.6363    0.0000 C   0  0  0  0  0  0  0  0  0  0  0  0
    8.5630    0.6363    0.0000 C   0  0  0  0  0  0  0  0  0  0  0  0
    8.5630    1.4613    0.0000 F   0  0  0  0  0  0  0  0  0  0  0  0
    8.5630   -0.1887    0.0000 F   0  0  0  0  0  0  0  0  0  0  0  0
    7.7380    0.6363    0.0000 C   0  0  0  0  0  0  0  0  0  0  0  0
    7.3255   -0.0781    0.0000 C   0  0  0  0  0  0  0  0  0  0  0  0
    6.5005   -0.0781    0.0000 C   0  0  0  0  0  0  0  0  0  0  0  0
    6.0880    0.6363    0.0000 C   0  0  0  0  0  0  0  0  0  0  0  0
    6.5005    1.3508    0.0000 C   0  0  0  0  0  0  0  0  0  0  0  0
    7.3255    1.3508    0.0000 C   0  0  0  0  0  0  0  0  0  0  0  0
    5.2630    0.6363    0.0000 N   0  0  0  0  0  0  0  0  0  0  0  0
    4.8505   -0.0781    0.0000 C   0  0  0  0  0  0  0  0  0  0  0  0
    4.0255   -0.0781    0.0000 C   0  0  0  0  0  0  0  0  0  0  0  0
    3.6130    0.6363    0.0000 C   0  0  0  0  0  0  0  0  0  0  0  0
    4.0255    1.3508    0.0000 C   0  0  0  0  0  0  0  0  0  0  0  0
    4.8505    1.3508    0.0000 C   0  0  0  0  0  0  0  0  0  0  0  0
    2.7880    0.6363    0.0000 N   0  0  0  0  0  0  0  0  0  0  0  0
    2.4300    1.3796    0.0000 C   0  0  0  0  0  0  0  0  0  0  0  0
    1.6257    1.5632    0.0000 C   0  0  0  0  0  0  0  0  0  0  0  0
    0.9807    1.0488    0.0000 C   0  0  0  0  0  0  0  0  0  0  0  0
    0.9807    0.2238    0.0000 C   0  0  0  0  0  0  0  0  0  0  0  0
    1.6257   -0.2905    0.0000 C   0  0  0  0  0  0  0  0  0  0  0  0
    2.4300   -0.1070    0.0000 C   0  0  0  0  0  0  0  0  0  0  0  0
    1.3940    0.6363    0.0000 O   0  0  0  0  0  0  0  0  0  0  0  0
  1  2  1  0  0  0  0
  2  3  1  0  0  0  0
  2  4  1  0  0  0  0
  2  5  1  0  0  0  0
  5  6  1  0  0  0  0
  6  7  1  0  0  0  0
  7  8  1  0  0  0  0
  8  9  2  0  0  0  0
  9 10  1  0  0  0  0
  5 10  1  0  0  0  0
  8 11  1  0  0  0  0
 11 12  1  0  0  0  0
 12 13  1  0  0  0  0
 13 14  1  0  0  0  0
 14 15  1  0  0  0  0
 15 16  1  0  0  0  0
 11 16  1  0  0  0  0
 14 17  1  0  0  0  0
 17 18  1  0  0  0  0
 18 19  1  0  0  0  0
 19 20  1  0  0  0  0
 20 21  1  0  0  0  0
 21 22  1  0  0  0  0
 22 23  1  0  0  0  0
 17 23  1  0  0  0  0
 22 24  1  0  0  0  0
 19 24  1  0  0  0  0
M  END
> <ID>
CPD_4247

$$$$
CPD_4252
  Mrv1822 09091914012D          

 18 19  0  0  0  0            999 V2000
    0.0179   -0.6474    0.0000 C   0  0  0  0  0  0  0  0  0  0  0  0
    0.0179   -1.4724    0.0000 C   0  0  0  0  0  0  0  0  0  0  0  0
   -0.6495   -1.9573    0.0000 C   0  0  0  0  0  0  0  0  0  0  0  0
   -0.3946   -2.7419    0.0000 N   0  0  0  0  0  0  0  0  0  0  0  0
    0.4304   -2.7419    0.0000 C   0  0  0  0  0  0  0  0  0  0  0  0
    0.9154   -3.4094    0.0000 C   0  0  0  0  0  0  0  0  0  0  0  0
    1.7358   -3.3231    0.0000 F   0  0  0  0  0  0  0  0  0  0  0  0
    0.5798   -4.1631    0.0000 F   0  0  0  0  0  0  0  0  0  0  0  0
    0.6854   -1.9573    0.0000 C   0  0  0  0  0  0  0  0  0  0  0  0
    1.4700   -1.7024    0.0000 C   0  0  0  0  0  0  0  0  0  0  0  0
    2.0831   -2.2544    0.0000 O   0  0  0  0  0  0  0  0  0  0  0  0
    1.6415   -0.8954    0.0000 C   0  0  0  0  0  0  0  0  0  0  0  0
    1.0895   -0.2823    0.0000 C   0  0  0  0  0  0  0  0  0  0  0  0
    1.5020    0.4322    0.0000 N   0  0  0  0  0  0  0  0  0  0  0  0
    1.1664    1.1858    0.0000 C   0  0  0  0  0  0  0  0  0  0  0  0
    2.3090    0.2606    0.0000 N   0  0  0  0  0  0  0  0  0  0  0  0
    2.3952   -0.5599    0.0000 C   0  0  0  0  0  0  0  0  0  0  0  0
    3.1097   -0.9724    0.0000 C   0  0  0  0  0  0  0  0  0  0  0  0
  1  2  1  0  0  0  0
  2  3  4  0  0  0  0
  3  4  4  0  0  0  0
  4  5  4  0  0  0  0
  5  6  1  0  0  0  0
  6  7  1  0  0  0  0
  6  8  1  0  0  0  0
  5  9  4  0  0  0  0
  2  9  4  0  0  0  0
  9 10  1  0  0  0  0
 10 11  2  0  0  0  0
 10 12  1  0  0  0  0
 12 13  4  0  0  0  0
 13 14  4  0  0  0  0
 14 15  1  0  0  0  0
 14 16  4  0  0  0  0
 16 17  4  0  0  0  0
 12 17  4  0  0  0  0
 17 18  1  0  0  0  0
M  STY  1   1 DAT
M  SAL   1  1   4
M  SDT   1 MRV_IMPLICIT_H                                        
M  SDD   1     0.5304   -0.4125    DR    ALL  0       0  
M  SED   1 IMPL_H1
M  END
> <ID>
CPD_4252

$$$$
CPD_4257
  Mrv1822 09091914012D          

 25 26  0  0  0  0            999 V2000
    2.8579   -2.4750    0.0000 C   0  0  0  0  0  0  0  0  0  0  0  0
    2.1434   -2.8875    0.0000 S   0  0  0  0  0  0  0  0  0  0  0  0
    2.1434   -3.7125    0.0000 C   0  0  0  0  0  0  0  0  0  0  0  0
    2.8579   -4.1250    0.0000 C   0  0  0  0  0  0  0  0  0  0  0  0
    2.8579   -4.9500    0.0000 C   0  0  0  0  0  0  0  0  0  0  0  0
    2.1434   -5.3625    0.0000 C   0  0  0  0  0  0  0  0  0  0  0  0
    1.4289   -4.9500    0.0000 C   0  0  0  0  0  0  0  0  0  0  0  0
    1.4289   -4.1250    0.0000 C   0  0  0  0  0  0  0  0  0  0  0  0
    0.7145   -5.3625    0.0000 N   0  0  0  0  0  0  0  0  0  0  0  0
    0.7145   -6.1875    0.0000 C   0  0  0  0  0  0  0  0  0  0  0  0
    0.0000   -6.6000    0.0000 C   0  0  0  0  0  0  0  0  0  0  0  0
   -0.7145   -6.1875    0.0000 O   0  0  0  0  0  0  0  0  0  0  0  0
    0.0000   -7.4250    0.0000 O   0  0  0  0  0  0  0  0  0  0  0  0
   -0.7145   -7.8375    0.0000 C   0  0  0  0  0  0  0  0  0  0  0  0
   -0.7145   -8.6625    0.0000 C   0  0  0  0  0  0  0  0  0  0  0  0
   -1.4289   -9.0750    0.0000 C   0  0  0  0  0  0  0  0  0  0  0  0
   -2.1434   -8.6625    0.0000 C   0  0  0  0  0  0  0  0  0  0  0  0
   -2.1434   -7.8375    0.0000 C   0  0  0  0  0  0  0  0  0  0  0  0
   -1.4289   -7.4250    0.0000 C   0  0  0  0  0  0  0  0  0  0  0  0
   -2.8579   -9.0750    0.0000 C   0  0  0  0  0  0  0  0  0  0  0  0
   -3.5724   -9.4875    0.0000 N   0  0  0  0  0  0  0  0  0  0  0  0
    0.0000   -4.9500    0.0000 S   0  0  0  0  0  0  0  0  0  0  0  0
   -0.7145   -4.5375    0.0000 C   0  0  0  0  0  0  0  0  0  0  0  0
   -0.4125   -5.6645    0.0000 O   0  0  0  0  0  0  0  0  0  0  0  0
    0.4125   -4.2355    0.0000 O   0  0  0  0  0  0  0  0  0  0  0  0
  1  2  1  0  0  0  0
  2  3  1  0  0  0  0
  3  4  2  0  0  0  0
  4  5  1  0  0  0  0
  5  6  2  0  0  0  0
  6  7  1  0  0  0  0
  7  8  2  0  0  0  0
  3  8  1  0  0  0  0
  7  9  1  0  0  0  0
  9 10  1  0  0  0  0
 10 11  1  0  0  0  0
 11 12  2  0  0  0  0
 11 13  1  0  0  0  0
 13 14  1  0  0  0  0
 14 15  1  0  0  0  0
 15 16  1  0  0  0  0
 16 17  1  0  0  0  0
 17 18  1  0  0  0  0
 18 19  1  0  0  0  0
 14 19  1  0  0  0  0
 17 20  1  0  0  0  0
 20 21  3  0  0  0  0
  9 22  1  0  0  0  0
 22 23  1  0  0  0  0
 22 24  2  0  0  0  0
 22 25  2  0  0  0  0
M  END
> <ID>
CPD_4257

$$$$
CPD_4262
  Mrv1822 09091914012D          

 23 25  0  0  0  0            999 V2000
   -1.4289    0.8250    0.0000 Cl  0  0  0  0  0  0  0  0  0  0  0  0
   -0.7145    1.2375    0.0000 C   0  0  0  0  0  0  0  0  0  0  0  0
   -0.7145    2.0625    0.0000 C   0  0  0  0  0  0  0  0  0  0  0  0
    0.0000    2.4750    0.0000 C   0  0  0  0  0  0  0  0  0  0  0  0
    0.7145    2.0625    0.0000 C   0  0  0  0  0  0  0  0  0  0  0  0
    0.7145    1.2375    0.0000 C   0  0  0  0  0  0  0  0  0  0  0  0
    0.0000    0.8250    0.0000 C   0  0  0  0  0  0  0  0  0  0  0  0
    0.0000   -0.0000    0.0000 N   0  0  0  0  0  0  0  0  0  0  0  0
    0.7145   -0.4125    0.0000 C   0  0  0  0  0  0  0  0  0  0  0  0
    1.4289   -0.0000    0.0000 O   0  0  0  0  0  0  0  0  0  0  0  0
    0.7145   -1.2375    0.0000 C   0  0  0  0  0  0  0  0  0  0  0  0
    1.3819   -1.7224    0.0000 N   0  0  0  0  0  0  0  0  0  0  0  0
    1.1270   -2.5070    0.0000 N   0  0  0  0  0  0  0  0  0  0  0  0
    0.3020   -2.5070    0.0000 C   0  0  0  0  0  0  0  0  0  0  0  0
    0.0470   -1.7224    0.0000 C   0  0  0  0  0  0  0  0  0  0  0  0
    1.6119   -3.1745    0.0000 C   0  0  0  0  0  0  0  0  0  0  0  0
    2.4324   -3.0882    0.0000 C   0  0  0  0  0  0  0  0  0  0  0  0
    2.9173   -3.7557    0.0000 C   0  0  0  0  0  0  0  0  0  0  0  0
    2.5817   -4.5094    0.0000 C   0  0  0  0  0  0  0  0  0  0  0  0
    1.7613   -4.5956    0.0000 C   0  0  0  0  0  0  0  0  0  0  0  0
    1.2763   -3.9282    0.0000 C   0  0  0  0  0  0  0  0  0  0  0  0
    3.0667   -5.1768    0.0000 C   0  0  0  0  0  0  0  0  0  0  0  0
    3.5516   -5.8442    0.0000 N   0  0  0  0  0  0  0  0  0  0  0  0
  1  2  1  0  0  0  0
  2  3  2  0  0  0  0
  3  4  1  0  0  0  0
  4  5  2  0  0  0  0
  5  6  1  0  0  0  0
  6  7  2  0  0  0  0
  2  7  1  0  0  0  0
  7  8  1  0  0  0  0
  8  9  1  0  0  0  0
  9 10  2  0  0  0  0
  9 11  1  0  0  0  0
 11 12  2  0  0  0  0
 12 13  1  0  0  0  0
 13 14  1  0  0  0  0
 14 15  2  0  0  0  0
 11 15  1  0  0  0  0
 13 16  1  0  0  0  0
 16 17  1  0  0  0  0
 17 18  1  0  0  0  0
 18 19  1  0  0  0  0
 19 20  1  0  0  0  0
 20 21  1  0  0  0  0
 16 21  1  0  0  0  0
 19 22  1  0  0  0  0
 22 23  3  0  0  0  0
M  END
> <ID>
CPD_4262

$$$$
CPD_4267
  Mrv1822 09091914012D          

 31 33  0  0  0  0            999 V2000
   -3.5724   -3.7125    0.0000 C   0  0  0  0  0  0  0  0  0  0  0  0
   -2.8579   -3.3000    0.0000 C   0  0  0  0  0  0  0  0  0  0  0  0
   -2.8579   -2.4750    0.0000 C   0  0  0  0  0  0  0  0  0  0  0  0
   -3.5724   -2.0625    0.0000 Cl  0  0  0  0  0  0  0  0  0  0  0  0
   -2.1434   -2.0625    0.0000 C   0  0  0  0  0  0  0  0  0  0  0  0
   -1.4289   -2.4750    0.0000 C   0  0  0  0  0  0  0  0  0  0  0  0
   -1.4289   -3.3000    0.0000 C   0  0  0  0  0  0  0  0  0  0  0  0
   -2.1434   -3.7125    0.0000 C   0  0  0  0  0  0  0  0  0  0  0  0
   -0.7145   -2.0625    0.0000 C   0  0  0  0  0  0  0  0  0  0  0  0
   -0.7145   -1.2375    0.0000 O   0  0  0  0  0  0  0  0  0  0  0  0
    0.0000   -2.4750    0.0000 N   0  0  0  0  0  0  0  0  0  0  0  0
    0.7145   -2.0625    0.0000 C   0  0  0  0  0  0  0  0  0  0  0  0
    0.7145   -1.2375    0.0000 S   0  0  0  0  0  0  0  0  0  0  0  0
    1.4289   -2.4750    0.0000 N   0  0  0  0  0  0  0  0  0  0  0  0
    1.4289   -3.3000    0.0000 C   0  0  0  0  0  0  0  0  0  0  0  0
    2.1434   -3.7125    0.0000 C   0  0  0  0  0  0  0  0  0  0  0  0
    2.1434   -4.5375    0.0000 C   0  0  0  0  0  0  0  0  0  0  0  0
    1.4289   -4.9500    0.0000 C   0  0  0  0  0  0  0  0  0  0  0  0
    0.7145   -4.5375    0.0000 O   0  0  0  0  0  0  0  0  0  0  0  0
    0.7145   -3.7125    0.0000 C   0  0  0  0  0  0  0  0  0  0  0  0
    0.0000   -3.3000    0.0000 O   0  0  0  0  0  0  0  0  0  0  0  0
    2.1434   -2.0625    0.0000 C   0  0  0  0  0  0  0  0  0  0  0  0
    2.1434   -1.2375    0.0000 C   0  0  0  0  0  0  0  0  0  0  0  0
    1.4289   -0.8250    0.0000 Cl  0  0  0  0  0  0  0  0  0  0  0  0
    2.8579   -0.8250    0.0000 C   0  0  0  0  0  0  0  0  0  0  0  0
    3.5724   -1.2375    0.0000 C   0  0  0  0  0  0  0  0  0  0  0  0
    3.5724   -2.0625    0.0000 C   0  0  0  0  0  0  0  0  0  0  0  0
    2.8579   -2.4750    0.0000 C   0  0  0  0  0  0  0  0  0  0  0  0
    4.2868   -2.4750    0.0000 C   0  0  0  0  0  0  0  0  0  0  0  0
    5.0013   -2.0625    0.0000 O   0  0  0  0  0  0  0  0  0  0  0  0
    4.2868   -3.3000    0.0000 O   0  0  0  0  0  0  0  0  0  0  0  0
  1  2  1  0  0  0  0
  2  3  2  0  0  0  0
  3  4  1  0  0  0  0
  3  5  1  0  0  0  0
  5  6  2  0  0  0  0
  6  7  1  0  0  0  0
  7  8  2  0  0  0  0
  2  8  1  0  0  0  0
  6  9  1  0  0  0  0
  9 10  2  0  0  0  0
  9 11  1  0  0  0  0
 11 12  1  0  0  0  0
 12 13  2  0  0  0  0
 12 14  1  0  0  0  0
 14 15  1  0  0  0  0
 15 16  1  0  0  0  0
 16 17  1  0  0  0  0
 17 18  1  0  0  0  0
 18 19  1  0  0  0  0
 19 20  1  0  0  0  0
 15 20  1  0  0  0  0
 20 21  2  0  0  0  0
 14 22  1  0  0  0  0
 22 23  2  0  0  0  0
 23 24  1  0  0  0  0
 23 25  1  0  0  0  0
 25 26  2  0  0  0  0
 26 27  1  0  0  0  0
 27 28  2  0  0  0  0
 22 28  1  0  0  0  0
 27 29  1  0  0  0  0
 29 30  1  0  0  0  0
 29 31  2  0  0  0  0
M  END
> <ID>
CPD_4267

$$$$
CPD_4272
  Mrv1822 09091914012D          

 27 27  0  0  0  0            999 V2000
    1.3004   -0.2716    0.0000 C   0  0  0  0  0  0  0  0  0  0  0  0
    2.0570    0.0573    0.0000 C   0  0  0  0  0  0  0  0  0  0  0  0
    2.3860   -0.6993    0.0000 C   0  0  0  0  0  0  0  0  0  0  0  0
    1.7281    0.8139    0.0000 C   0  0  0  0  0  0  0  0  0  0  0  0
    2.8136    0.3862    0.0000 O   0  0  0  0  0  0  0  0  0  0  0  0
    3.4969   -0.1194    0.0000 C   0  0  0  0  0  0  0  0  0  0  0  0
    3.7994    0.6967    0.0000 O   0  0  0  0  0  0  0  0  0  0  0  0
    3.8040   -0.9592    0.0000 N   0  0  0  0  0  0  0  0  0  0  0  0
    2.9733   -1.3991    0.0000 C   0  0  0  0  0  0  0  0  0  0  0  0
    2.5333   -2.1896    0.0000 C   0  0  0  0  0  0  0  0  0  0  0  0
    1.6756   -2.3542    0.0000 C   0  0  0  0  0  0  0  0  0  0  0  0
    1.0241   -1.7774    0.0000 O   0  0  0  0  0  0  0  0  0  0  0  0
    2.6393   -3.0960    0.0000 C   0  0  0  0  0  0  0  0  0  0  0  0
    3.0608   -3.8534    0.0000 C   0  0  0  0  0  0  0  0  0  0  0  0
    2.4935   -3.9487    0.0000 C   0  0  0  0  0  0  0  0  0  0  0  0
    3.4484   -2.8430    0.0000 C   0  0  0  0  0  0  0  0  0  0  0  0
    4.6621   -1.3854    0.0000 C   0  0  0  0  0  0  0  0  0  0  0  0
    5.1129   -2.1896    0.0000 C   0  0  0  0  0  0  0  0  0  0  0  0
    5.9311   -2.7686    0.0000 O   0  0  0  0  0  0  0  0  0  0  0  0
    4.6325   -2.9399    0.0000 O   0  0  0  0  0  0  0  0  0  0  0  0
    5.4549   -0.9473    0.0000 C   0  0  0  0  0  0  0  0  0  0  0  0
    5.1988   -0.1630    0.0000 C   0  0  0  0  0  0  0  0  0  0  0  0
    6.0060   -0.3334    0.0000 C   0  0  0  0  0  0  0  0  0  0  0  0
    6.3192   -1.2928    0.0000 C   0  0  0  0  0  0  0  0  0  0  0  0
    7.0660   -1.7689    0.0000 F   0  0  0  0  0  0  0  0  0  0  0  0
    5.9716   -2.0749    0.0000 F   0  0  0  0  0  0  0  0  0  0  0  0
    7.1749   -1.1028    0.0000 F   0  0  0  0  0  0  0  0  0  0  0  0
  1  2  1  0  0  0  0
  2  3  1  0  0  0  0
  2  4  1  0  0  0  0
  2  5  1  0  0  0  0
  5  6  1  0  0  0  0
  6  7  2  0  0  0  0
  6  8  1  0  0  0  0
  8  9  1  0  0  0  0
  9 10  1  0  0  0  0
 10 11  1  0  0  0  0
 11 12  1  0  0  0  0
 10 13  1  0  0  0  0
 13 14  1  0  0  0  0
 13 15  1  0  0  0  0
 13 16  1  0  0  0  0
  8 17  1  0  0  0  0
 17 18  1  0  0  0  0
 18 19  1  0  0  0  0
 18 20  2  0  0  0  0
 17 21  1  0  0  0  0
 21 22  1  0  0  0  0
 22 23  1  0  0  0  0
 21 23  1  0  0  0  0
 21 24  1  0  0  0  0
 24 25  1  0  0  0  0
 24 26  1  0  0  0  0
 24 27  1  0  0  0  0
M  END
> <ID>
CPD_4272

$$$$
CPD_4277
  Mrv1822 09091914012D          

 20 20  0  0  0  0            999 V2000
   -1.4289    4.1250    0.0000 C   0  0  0  0  0  0  0  0  0  0  0  0
   -0.7145    3.7125    0.0000 C   0  0  0  0  0  0  0  0  0  0  0  0
   -1.1270    2.9980    0.0000 C   0  0  0  0  0  0  0  0  0  0  0  0
   -0.3020    4.4270    0.0000 C   0  0  0  0  0  0  0  0  0  0  0  0
    0.0000    3.3000    0.0000 C   0  0  0  0  0  0  0  0  0  0  0  0
    0.7145    3.7125    0.0000 C   0  0  0  0  0  0  0  0  0  0  0  0
    1.4289    3.3000    0.0000 O   0  0  0  0  0  0  0  0  0  0  0  0
    0.0000    2.4750    0.0000 C   0  0  0  0  0  0  0  0  0  0  0  0
    0.7145    2.0625    0.0000 N   0  0  0  0  0  0  0  0  0  0  0  0
    0.7145    1.2375    0.0000 C   0  0  0  0  0  0  0  0  0  0  0  0
    1.4289    0.8250    0.0000 C   0  0  0  0  0  0  0  0  0  0  0  0
    1.4289   -0.0000    0.0000 C   0  0  0  0  0  0  0  0  0  0  0  0
    0.7145   -0.4125    0.0000 C   0  0  0  0  0  0  0  0  0  0  0  0
    0.7145   -1.2375    0.0000 O   0  0  0  0  0  0  0  0  0  0  0  0
    1.4289   -1.6500    0.0000 C   0  0  0  0  0  0  0  0  0  0  0  0
    1.4289   -2.4750    0.0000 C   0  0  0  0  0  0  0  0  0  0  0  0
    2.1434   -2.8875    0.0000 O   0  0  0  0  0  0  0  0  0  0  0  0
    0.7145   -2.8875    0.0000 O   0  0  0  0  0  0  0  0  0  0  0  0
    0.0000    0.0000    0.0000 C   0  0  0  0  0  0  0  0  0  0  0  0
    0.0000    0.8250    0.0000 C   0  0  0  0  0  0  0  0  0  0  0  0
  1  2  1  0  0  0  0
  2  3  1  0  0  0  0
  2  4  1  0  0  0  0
  2  5  1  0  0  0  0
  5  6  1  0  0  0  0
  6  7  1  0  0  0  0
  5  8  1  0  0  0  0
  8  9  1  0  0  0  0
  9 10  1  0  0  0  0
 10 11  2  0  0  0  0
 11 12  1  0  0  0  0
 12 13  2  0  0  0  0
 13 14  1  0  0  0  0
 14 15  1  0  0  0  0
 15 16  1  0  0  0  0
 16 17  1  0  0  0  0
 16 18  2  0  0  0  0
 13 19  1  0  0  0  0
 19 20  2  0  0  0  0
 10 20  1  0  0  0  0
M  END
> <ID>
CPD_4277

$$$$
CPD_4282
  Mrv1822 09091914012D          

 19 20  0  0  0  0            999 V2000
    0.4817   -6.0167    0.0000 O   0  0  0  0  0  0  0  0  0  0  0  0
    1.1962   -5.6042    0.0000 C   0  0  0  0  0  0  0  0  0  0  0  0
    1.9106   -6.0167    0.0000 C   0  0  0  0  0  0  0  0  0  0  0  0
    2.6251   -5.6042    0.0000 C   0  0  0  0  0  0  0  0  0  0  0  0
    3.3396   -6.0167    0.0000 C   0  0  0  0  0  0  0  0  0  0  0  0
    4.0540   -5.6042    0.0000 C   0  0  0  0  0  0  0  0  0  0  0  0
    4.7685   -6.0167    0.0000 N   0  0  0  0  0  0  0  0  0  0  0  0
    5.4830   -5.6042    0.0000 C   0  0  0  0  0  0  0  0  0  0  0  0
    5.5692   -4.7837    0.0000 N   0  0  0  0  0  0  0  0  0  0  0  0
    6.3762   -4.6122    0.0000 N   0  0  0  0  0  0  0  0  0  0  0  0
    6.7887   -5.3267    0.0000 C   0  0  0  0  0  0  0  0  0  0  0  0
    6.2367   -5.9398    0.0000 O   0  0  0  0  0  0  0  0  0  0  0  0
    7.6092   -5.4129    0.0000 C   0  0  0  0  0  0  0  0  0  0  0  0
    8.0941   -4.7455    0.0000 C   0  0  0  0  0  0  0  0  0  0  0  0
    7.7585   -3.9918    0.0000 F   0  0  0  0  0  0  0  0  0  0  0  0
    8.9146   -4.8317    0.0000 C   0  0  0  0  0  0  0  0  0  0  0  0
    9.2501   -5.5854    0.0000 C   0  0  0  0  0  0  0  0  0  0  0  0
    8.7652   -6.2528    0.0000 C   0  0  0  0  0  0  0  0  0  0  0  0
    7.9447   -6.1666    0.0000 C   0  0  0  0  0  0  0  0  0  0  0  0
  1  2  1  0  0  0  0
  2  3  1  0  0  0  0
  3  4  1  0  0  0  0
  4  5  1  0  0  0  0
  5  6  1  0  0  0  0
  6  7  1  0  0  0  0
  7  8  1  0  0  0  0
  8  9  2  0  0  0  0
  9 10  1  0  0  0  0
 10 11  2  0  0  0  0
 11 12  1  0  0  0  0
  8 12  1  0  0  0  0
 11 13  1  0  0  0  0
 13 14  2  0  0  0  0
 14 15  1  0  0  0  0
 14 16  1  0  0  0  0
 16 17  2  0  0  0  0
 17 18  1  0  0  0  0
 18 19  2  0  0  0  0
 13 19  1  0  0  0  0
M  END
> <ID>
CPD_4282

$$$$
CPD_4287
  Mrv1822 09091914012D          

 24 25  0  0  0  0            999 V2000
   -4.4852    6.4292    0.0000 C   0  0  0  0  0  0  0  0  0  0  0  0
   -4.1496    5.6755    0.0000 O   0  0  0  0  0  0  0  0  0  0  0  0
   -4.6345    5.0081    0.0000 C   0  0  0  0  0  0  0  0  0  0  0  0
   -4.2990    4.2544    0.0000 C   0  0  0  0  0  0  0  0  0  0  0  0
   -4.7839    3.5870    0.0000 C   0  0  0  0  0  0  0  0  0  0  0  0
   -5.6044    3.6732    0.0000 C   0  0  0  0  0  0  0  0  0  0  0  0
   -5.9399    4.4269    0.0000 C   0  0  0  0  0  0  0  0  0  0  0  0
   -6.7604    4.5131    0.0000 O   0  0  0  0  0  0  0  0  0  0  0  0
   -7.0960    5.2668    0.0000 C   0  0  0  0  0  0  0  0  0  0  0  0
   -5.4550    5.0943    0.0000 C   0  0  0  0  0  0  0  0  0  0  0  0
   -5.7906    5.8480    0.0000 O   0  0  0  0  0  0  0  0  0  0  0  0
   -5.3056    6.5154    0.0000 C   0  0  0  0  0  0  0  0  0  0  0  0
   -4.4483    2.8333    0.0000 C   0  0  0  0  0  0  0  0  0  0  0  0
   -3.6414    2.6618    0.0000 N   0  0  0  0  0  0  0  0  0  0  0  0
   -3.5551    1.8413    0.0000 N   0  0  0  0  0  0  0  0  0  0  0  0
   -2.8407    1.4288    0.0000 C   0  0  0  0  0  0  0  0  0  0  0  0
   -2.1262    1.8413    0.0000 C   0  0  0  0  0  0  0  0  0  0  0  0
   -1.4117    1.4288    0.0000 C   0  0  0  0  0  0  0  0  0  0  0  0
   -0.6972    1.8413    0.0000 C   0  0  0  0  0  0  0  0  0  0  0  0
    0.0172    1.4288    0.0000 C   0  0  0  0  0  0  0  0  0  0  0  0
    0.7317    1.8413    0.0000 O   0  0  0  0  0  0  0  0  0  0  0  0
   -4.3088    1.5057    0.0000 C   0  0  0  0  0  0  0  0  0  0  0  0
   -4.4803    0.6988    0.0000 N   0  0  0  0  0  0  0  0  0  0  0  0
   -4.8608    2.1188    0.0000 C   0  0  0  0  0  0  0  0  0  0  0  0
  1  2  1  0  0  0  0
  2  3  1  0  0  0  0
  3  4  2  0  0  0  0
  4  5  1  0  0  0  0
  5  6  2  0  0  0  0
  6  7  1  0  0  0  0
  7  8  1  0  0  0  0
  8  9  1  0  0  0  0
  7 10  2  0  0  0  0
  3 10  1  0  0  0  0
 10 11  1  0  0  0  0
 11 12  1  0  0  0  0
  5 13  1  0  0  0  0
 13 14  2  0  0  0  0
 14 15  1  0  0  0  0
 15 16  1  0  0  0  0
 16 17  1  0  0  0  0
 17 18  1  0  0  0  0
 18 19  1  0  0  0  0
 19 20  1  0  0  0  0
 20 21  1  0  0  0  0
 15 22  1  0  0  0  0
 22 23  1  0  0  0  0
 22 24  2  0  0  0  0
 13 24  1  0  0  0  0
M  END
> <ID>
CPD_4287

$$$$
CPD_4292
  Mrv1822 09091914012D          

 28 30  0  0  0  0            999 V2000
    1.5395   -7.9993    0.0000 C   0  0  0  0  0  0  0  0  0  0  0  0
    1.9520   -7.2849    0.0000 C   0  0  0  0  0  0  0  0  0  0  0  0
    2.7770   -7.2849    0.0000 C   0  0  0  0  0  0  0  0  0  0  0  0
    3.1895   -7.9993    0.0000 F   0  0  0  0  0  0  0  0  0  0  0  0
    3.1895   -6.5704    0.0000 C   0  0  0  0  0  0  0  0  0  0  0  0
    2.7770   -5.8559    0.0000 C   0  0  0  0  0  0  0  0  0  0  0  0
    3.1895   -5.1414    0.0000 C   0  0  0  0  0  0  0  0  0  0  0  0
    2.7770   -4.4270    0.0000 N   0  0  0  0  0  0  0  0  0  0  0  0
    1.9520   -4.4270    0.0000 C   0  0  0  0  0  0  0  0  0  0  0  0
    1.5395   -5.1414    0.0000 S   0  0  0  0  0  0  0  0  0  0  0  0
    1.5395   -3.7125    0.0000 N   0  0  0  0  0  0  0  0  0  0  0  0
    0.7145   -3.7125    0.0000 C   0  0  0  0  0  0  0  0  0  0  0  0
    0.3020   -2.9980    0.0000 C   0  0  0  0  0  0  0  0  0  0  0  0
   -0.5230   -2.9980    0.0000 C   0  0  0  0  0  0  0  0  0  0  0  0
   -0.9355   -2.2836    0.0000 C   0  0  0  0  0  0  0  0  0  0  0  0
   -0.5230   -1.5691    0.0000 N   0  0  0  0  0  0  0  0  0  0  0  0
    0.3020   -1.5691    0.0000 C   0  0  0  0  0  0  0  0  0  0  0  0
    0.7145   -2.2836    0.0000 C   0  0  0  0  0  0  0  0  0  0  0  0
    3.1895   -3.7125    0.0000 C   0  0  0  0  0  0  0  0  0  0  0  0
    2.7770   -2.9980    0.0000 O   0  0  0  0  0  0  0  0  0  0  0  0
    4.0145   -3.7125    0.0000 C   0  0  0  0  0  0  0  0  0  0  0  0
    4.4270   -2.9980    0.0000 C   0  0  0  0  0  0  0  0  0  0  0  0
    5.2520   -2.9980    0.0000 C   0  0  0  0  0  0  0  0  0  0  0  0
    5.6645   -3.7125    0.0000 C   0  0  0  0  0  0  0  0  0  0  0  0
    5.2520   -4.4270    0.0000 C   0  0  0  0  0  0  0  0  0  0  0  0
    4.4270   -4.4270    0.0000 C   0  0  0  0  0  0  0  0  0  0  0  0
    1.9520   -5.8559    0.0000 C   0  0  0  0  0  0  0  0  0  0  0  0
    1.5395   -6.5704    0.0000 N   0  0  0  0  0  0  0  0  0  0  0  0
  1  2  1  0  0  0  0
  2  3  2  0  0  0  0
  3  4  1  0  0  0  0
  3  5  1  0  0  0  0
  5  6  2  0  0  0  0
  6  7  1  0  0  0  0
  7  8  1  0  0  0  0
  8  9  1  0  0  0  0
  9 10  2  0  0  0  0
  9 11  1  0  0  0  0
 11 12  1  0  0  0  0
 12 13  1  0  0  0  0
 13 14  2  0  0  0  0
 14 15  1  0  0  0  0
 15 16  2  0  0  0  0
 16 17  1  0  0  0  0
 17 18  2  0  0  0  0
 13 18  1  0  0  0  0
  8 19  1  0  0  0  0
 19 20  2  0  0  0  0
 19 21  1  0  0  0  0
 21 22  2  0  0  0  0
 22 23  1  0  0  0  0
 23 24  2  0  0  0  0
 24 25  1  0  0  0  0
 25 26  2  0  0  0  0
 21 26  1  0  0  0  0
  6 27  1  0  0  0  0
 27 28  2  0  0  0  0
  2 28  1  0  0  0  0
M  END
> <ID>
CPD_4292

$$$$
CPD_4297
  Mrv1822 09091914012D          

 20 21  0  0  0  0            999 V2000
    2.1434   -0.4125    0.0000 C   0  0  0  0  0  0  0  0  0  0  0  0
    2.1434   -1.2375    0.0000 C   0  0  0  0  0  0  0  0  0  0  0  0
    2.8579   -1.6500    0.0000 C   0  0  0  0  0  0  0  0  0  0  0  0
    3.5724   -1.2375    0.0000 F   0  0  0  0  0  0  0  0  0  0  0  0
    2.8579   -2.4750    0.0000 C   0  0  0  0  0  0  0  0  0  0  0  0
    2.1434   -2.8875    0.0000 C   0  0  0  0  0  0  0  0  0  0  0  0
    2.1434   -3.7125    0.0000 C   0  0  0  0  0  0  0  0  0  0  0  0
    1.4289   -4.1250    0.0000 N   0  0  0  0  0  0  0  0  0  0  0  0
    1.4289   -4.9500    0.0000 C   0  0  0  0  0  0  0  0  0  0  0  0
    0.7145   -5.3625    0.0000 C   0  0  0  0  0  0  0  0  0  0  0  0
   -0.0000   -4.9500    0.0000 C   0  0  0  0  0  0  0  0  0  0  0  0
   -0.0000   -4.1250    0.0000 C   0  0  0  0  0  0  0  0  0  0  0  0
    0.7145   -3.7125    0.0000 C   0  0  0  0  0  0  0  0  0  0  0  0
   -0.7145   -5.3625    0.0000 N   0  0  0  0  0  0  0  0  0  0  0  0
   -0.7145   -6.1875    0.0000 S   0  0  0  0  0  0  0  0  0  0  0  0
   -0.7145   -7.0125    0.0000 C   0  0  0  0  0  0  0  0  0  0  0  0
   -1.5395   -6.1875    0.0000 O   0  0  0  0  0  0  0  0  0  0  0  0
    0.1105   -6.1875    0.0000 O   0  0  0  0  0  0  0  0  0  0  0  0
    1.4289   -2.4750    0.0000 C   0  0  0  0  0  0  0  0  0  0  0  0
    1.4289   -1.6500    0.0000 N   0  0  0  0  0  0  0  0  0  0  0  0
  1  2  1  0  0  0  0
  2  3  2  0  0  0  0
  3  4  1  0  0  0  0
  3  5  1  0  0  0  0
  5  6  2  0  0  0  0
  6  7  1  0  0  0  0
  7  8  1  0  0  0  0
  8  9  1  0  0  0  0
  9 10  1  0  0  0  0
 10 11  1  0  0  0  0
 11 12  1  0  0  0  0
 12 13  1  0  0  0  0
  8 13  1  0  0  0  0
 11 14  1  0  0  0  0
 14 15  1  0  0  0  0
 15 16  1  0  0  0  0
 15 17  2  0  0  0  0
 15 18  2  0  0  0  0
  6 19  1  0  0  0  0
 19 20  2  0  0  0  0
  2 20  1  0  0  0  0
M  END
> <ID>
CPD_4297

$$$$
CPD_4302
  Mrv1822 09091914012D          

 21 23  0  0  1  0            999 V2000
    3.5724   -0.4125    0.0000 C   0  0  0  0  0  0  0  0  0  0  0  0
    3.5724   -1.2375    0.0000 C   0  0  0  0  0  0  0  0  0  0  0  0
    4.2868   -1.6500    0.0000 C   0  0  0  0  0  0  0  0  0  0  0  0
    5.0013   -1.2375    0.0000 F   0  0  0  0  0  0  0  0  0  0  0  0
    4.2868   -2.4750    0.0000 C   0  0  0  0  0  0  0  0  0  0  0  0
    3.5724   -2.8875    0.0000 C   0  0  0  0  0  0  0  0  0  0  0  0
    3.5724   -3.7125    0.0000 C   0  0  0  0  0  0  0  0  0  0  0  0
    4.2868   -4.1250    0.0000 N   0  0  0  0  0  0  0  0  0  0  0  0
    5.0013   -3.7125    0.0000 C   0  0  0  0  0  0  0  0  0  0  0  0
    5.7158   -4.1250    0.0000 C   0  0  0  0  0  0  0  0  0  0  0  0
    5.7158   -4.9500    0.0000 C   0  0  0  0  0  0  0  0  0  0  0  0
    5.0013   -5.3625    0.0000 C   0  0  0  0  0  0  0  0  0  0  0  0
    4.2868   -4.9500    0.0000 C   0  0  1  0  0  0  0  0  0  0  0  0
    3.5724   -5.3625    0.0000 C   0  0  0  0  0  0  0  0  0  0  0  0
    3.5724   -6.1875    0.0000 C   0  0  0  0  0  0  0  0  0  0  0  0
    2.8579   -6.6000    0.0000 C   0  0  0  0  0  0  0  0  0  0  0  0
    2.1434   -6.1875    0.0000 C   0  0  0  0  0  0  0  0  0  0  0  0
    2.1434   -5.3625    0.0000 C   0  0  0  0  0  0  0  0  0  0  0  0
    2.8579   -4.9500    0.0000 C   0  0  0  0  0  0  0  0  0  0  0  0
    2.8579   -2.4750    0.0000 C   0  0  0  0  0  0  0  0  0  0  0  0
    2.8579   -1.6500    0.0000 N   0  0  0  0  0  0  0  0  0  0  0  0
  1  2  1  0  0  0  0
  2  3  2  0  0  0  0
  3  4  1  0  0  0  0
  3  5  1  0  0  0  0
  5  6  2  0  0  0  0
  6  7  1  0  0  0  0
  7  8  1  0  0  0  0
  8  9  1  0  0  0  0
  9 10  1  0  0  0  0
 10 11  1  0  0  0  0
 11 12  1  0  0  0  0
 13 12  1  0  0  0  0
 13  8  1  0  0  0  0
 13 14  1  1  0  0  0
 14 15  2  0  0  0  0
 15 16  1  0  0  0  0
 16 17  2  0  0  0  0
 17 18  1  0  0  0  0
 18 19  2  0  0  0  0
 14 19  1  0  0  0  0
  6 20  1  0  0  0  0
 20 21  2  0  0  0  0
  2 21  1  0  0  0  0
M  END
> <ID>
CPD_4302

$$$$
CPD_4307
  Mrv1822 09091914012D          

 20 21  0  0  0  0            999 V2000
    0.7145   -3.7125    0.0000 C   0  0  0  0  0  0  0  0  0  0  0  0
    1.4289   -4.1250    0.0000 C   0  0  0  0  0  0  0  0  0  0  0  0
    2.1434   -3.7125    0.0000 O   0  0  0  0  0  0  0  0  0  0  0  0
    2.8579   -4.1250    0.0000 C   0  0  0  0  0  0  0  0  0  0  0  0
    2.8579   -4.9500    0.0000 O   0  0  0  0  0  0  0  0  0  0  0  0
    3.5724   -3.7125    0.0000 N   0  0  0  0  0  0  0  0  0  0  0  0
    4.2868   -4.1250    0.0000 C   0  0  0  0  0  0  0  0  0  0  0  0
    4.2868   -4.9500    0.0000 S   0  0  0  0  0  0  0  0  0  0  0  0
    5.0013   -3.7125    0.0000 N   0  0  0  0  0  0  0  0  0  0  0  0
    5.0013   -2.8875    0.0000 C   0  0  0  0  0  0  0  0  0  0  0  0
    5.7158   -4.1250    0.0000 C   0  0  0  0  0  0  0  0  0  0  0  0
    6.4302   -3.7125    0.0000 C   0  0  0  0  0  0  0  0  0  0  0  0
    6.4302   -2.8875    0.0000 C   0  0  0  0  0  0  0  0  0  0  0  0
    6.0177   -2.1730    0.0000 C   0  0  0  0  0  0  0  0  0  0  0  0
    6.8427   -2.1730    0.0000 C   0  0  0  0  0  0  0  0  0  0  0  0
    7.1447   -4.1250    0.0000 C   0  0  0  0  0  0  0  0  0  0  0  0
    7.8592   -3.7125    0.0000 Cl  0  0  0  0  0  0  0  0  0  0  0  0
    7.1447   -4.9500    0.0000 C   0  0  0  0  0  0  0  0  0  0  0  0
    6.4302   -5.3625    0.0000 C   0  0  0  0  0  0  0  0  0  0  0  0
    5.7158   -4.9500    0.0000 C   0  0  0  0  0  0  0  0  0  0  0  0
  1  2  1  0  0  0  0
  2  3  1  0  0  0  0
  3  4  1  0  0  0  0
  4  5  2  0  0  0  0
  4  6  1  0  0  0  0
  6  7  1  0  0  0  0
  7  8  2  0  0  0  0
  7  9  1  0  0  0  0
  9 10  1  0  0  0  0
  9 11  1  0  0  0  0
 11 12  2  0  0  0  0
 12 13  1  0  0  0  0
 13 14  1  0  0  0  0
 14 15  1  0  0  0  0
 13 15  1  0  0  0  0
 12 16  1  0  0  0  0
 16 17  1  0  0  0  0
 16 18  2  0  0  0  0
 18 19  1  0  0  0  0
 19 20  2  0  0  0  0
 11 20  1  0  0  0  0
M  END
> <ID>
CPD_4307

$$$$
CPD_4312
  Mrv1822 09091914012D          

 30 33  0  0  0  0            999 V2000
    7.4467   -0.1743    0.0000 O   0  0  0  0  0  0  0  0  0  0  0  0
    6.7322   -0.5868    0.0000 C   0  0  0  0  0  0  0  0  0  0  0  0
    6.7322   -1.4118    0.0000 O   0  0  0  0  0  0  0  0  0  0  0  0
    6.0177   -0.1743    0.0000 C   0  0  0  0  0  0  0  0  0  0  0  0
    5.3033   -0.5868    0.0000 C   0  0  0  0  0  0  0  0  0  0  0  0
    5.3033   -1.4118    0.0000 C   0  0  0  0  0  0  0  0  0  0  0  0
    4.5888   -1.8243    0.0000 C   0  0  0  0  0  0  0  0  0  0  0  0
    3.8743   -1.4118    0.0000 C   0  0  0  0  0  0  0  0  0  0  0  0
    3.8743   -0.5868    0.0000 C   0  0  0  0  0  0  0  0  0  0  0  0
    4.5888   -0.1743    0.0000 C   0  0  0  0  0  0  0  0  0  0  0  0
    3.1599   -0.1743    0.0000 C   0  0  0  0  0  0  0  0  0  0  0  0
    2.4454   -0.5868    0.0000 C   0  0  0  0  0  0  0  0  0  0  0  0
    1.7309   -0.1743    0.0000 C   0  0  0  0  0  0  0  0  0  0  0  0
    1.7309    0.6507    0.0000 C   0  0  0  0  0  0  0  0  0  0  0  0
    1.0164    1.0632    0.0000 C   0  0  0  0  0  0  0  0  0  0  0  0
    1.0164    1.8882    0.0000 O   0  0  0  0  0  0  0  0  0  0  0  0
    0.3020    0.6507    0.0000 O   0  0  0  0  0  0  0  0  0  0  0  0
   -0.4125    1.0632    0.0000 C   0  0  0  0  0  0  0  0  0  0  0  0
   -1.1270    0.6507    0.0000 C   0  0  0  0  0  0  0  0  0  0  0  0
   -1.1270   -0.1743    0.0000 C   0  0  0  0  0  0  0  0  0  0  0  0
   -0.7145   -0.8888    0.0000 C   0  0  0  0  0  0  0  0  0  0  0  0
   -1.5395   -0.8888    0.0000 C   0  0  0  0  0  0  0  0  0  0  0  0
   -1.8414    1.0632    0.0000 C   0  0  0  0  0  0  0  0  0  0  0  0
   -2.5559    0.6507    0.0000 Cl  0  0  0  0  0  0  0  0  0  0  0  0
   -1.8414    1.8882    0.0000 C   0  0  0  0  0  0  0  0  0  0  0  0
   -1.1270    2.3007    0.0000 C   0  0  0  0  0  0  0  0  0  0  0  0
   -0.4125    1.8882    0.0000 C   0  0  0  0  0  0  0  0  0  0  0  0
    2.4454    1.0632    0.0000 C   0  0  0  0  0  0  0  0  0  0  0  0
    2.4454    1.8882    0.0000 F   0  0  0  0  0  0  0  0  0  0  0  0
    3.1599    0.6507    0.0000 C   0  0  0  0  0  0  0  0  0  0  0  0
  1  2  1  0  0  0  0
  2  3  2  0  0  0  0
  2  4  1  0  0  0  0
  4  5  1  0  0  0  0
  5  6  2  0  0  0  0
  6  7  1  0  0  0  0
  7  8  2  0  0  0  0
  8  9  1  0  0  0  0
  9 10  2  0  0  0  0
  5 10  1  0  0  0  0
  9 11  1  0  0  0  0
 11 12  2  0  0  0  0
 12 13  1  0  0  0  0
 13 14  2  0  0  0  0
 14 15  1  0  0  0  0
 15 16  2  0  0  0  0
 15 17  1  0  0  0  0
 17 18  1  0  0  0  0
 18 19  2  0  0  0  0
 19 20  1  0  0  0  0
 20 21  1  0  0  0  0
 21 22  1  0  0  0  0
 20 22  1  0  0  0  0
 19 23  1  0  0  0  0
 23 24  1  0  0  0  0
 23 25  2  0  0  0  0
 25 26  1  0  0  0  0
 26 27  2  0  0  0  0
 18 27  1  0  0  0  0
 14 28  1  0  0  0  0
 28 29  1  0  0  0  0
 28 30  2  0  0  0  0
 11 30  1  0  0  0  0
M  END
> <ID>
CPD_4312

$$$$
CPD_4317
  Mrv1822 09091914012D          

 23 26  0  0  0  0            999 V2000
    4.0668    2.3479    0.0000 Cl  0  0  0  0  0  0  0  0  0  0  0  0
    3.3523    1.9354    0.0000 C   0  0  0  0  0  0  0  0  0  0  0  0
    3.3523    1.1104    0.0000 C   0  0  0  0  0  0  0  0  0  0  0  0
    2.6378    0.6979    0.0000 N   0  0  0  0  0  0  0  0  0  0  0  0
    1.9233    1.1104    0.0000 C   0  0  0  0  0  0  0  0  0  0  0  0
    1.1387    0.8555    0.0000 N   0  0  0  0  0  0  0  0  0  0  0  0
    0.6538    1.5229    0.0000 C   0  0  0  0  0  0  0  0  0  0  0  0
    1.1387    2.1904    0.0000 C   0  0  0  0  0  0  0  0  0  0  0  0
    0.8838    2.9750    0.0000 C   0  0  0  0  0  0  0  0  0  0  0  0
    1.4358    3.5881    0.0000 O   0  0  0  0  0  0  0  0  0  0  0  0
    0.0768    3.1465    0.0000 O   0  0  0  0  0  0  0  0  0  0  0  0
   -0.1781    3.9312    0.0000 C   0  0  0  0  0  0  0  0  0  0  0  0
   -0.9851    4.1027    0.0000 C   0  0  0  0  0  0  0  0  0  0  0  0
   -1.5371    3.4896    0.0000 C   0  0  0  0  0  0  0  0  0  0  0  0
   -1.7087    2.6826    0.0000 C   0  0  0  0  0  0  0  0  0  0  0  0
   -2.3218    3.2346    0.0000 C   0  0  0  0  0  0  0  0  0  0  0  0
   -1.2400    4.8873    0.0000 C   0  0  0  0  0  0  0  0  0  0  0  0
   -2.0470    5.0588    0.0000 Cl  0  0  0  0  0  0  0  0  0  0  0  0
   -0.6880    5.5004    0.0000 C   0  0  0  0  0  0  0  0  0  0  0  0
    0.1190    5.3289    0.0000 C   0  0  0  0  0  0  0  0  0  0  0  0
    0.3739    4.5442    0.0000 C   0  0  0  0  0  0  0  0  0  0  0  0
    1.9233    1.9354    0.0000 C   0  0  0  0  0  0  0  0  0  0  0  0
    2.6378    2.3479    0.0000 C   0  0  0  0  0  0  0  0  0  0  0  0
  1  2  1  0  0  0  0
  2  3  2  0  0  0  0
  3  4  1  0  0  0  0
  4  5  2  0  0  0  0
  5  6  1  0  0  0  0
  6  7  1  0  0  0  0
  7  8  2  0  0  0  0
  8  9  1  0  0  0  0
  9 10  2  0  0  0  0
  9 11  1  0  0  0  0
 11 12  1  0  0  0  0
 12 13  2  0  0  0  0
 13 14  1  0  0  0  0
 14 15  1  0  0  0  0
 15 16  1  0  0  0  0
 14 16  1  0  0  0  0
 13 17  1  0  0  0  0
 17 18  1  0  0  0  0
 17 19  2  0  0  0  0
 19 20  1  0  0  0  0
 20 21  2  0  0  0  0
 12 21  1  0  0  0  0
  8 22  1  0  0  0  0
  5 22  1  0  0  0  0
 22 23  2  0  0  0  0
  2 23  1  0  0  0  0
M  END
> <ID>
CPD_4317

$$$$
CPD_4322
  Mrv1822 09091914012D          

 22 25  0  0  0  0            999 V2000
    0.0000    0.8250    0.0000 N   0  0  0  0  0  0  0  0  0  0  0  0
    0.0000    0.0000    0.0000 C   0  0  0  0  0  0  0  0  0  0  0  0
   -0.7145   -0.4125    0.0000 N   0  0  0  0  0  0  0  0  0  0  0  0
   -1.4289    0.0000    0.0000 C   0  0  0  0  0  0  0  0  0  0  0  0
   -2.1434   -0.4125    0.0000 C   0  0  0  0  0  0  0  0  0  0  0  0
   -2.2296   -1.2330    0.0000 N   0  0  0  0  0  0  0  0  0  0  0  0
   -3.0366   -1.4045    0.0000 C   0  0  0  0  0  0  0  0  0  0  0  0
   -3.4491   -0.6900    0.0000 C   0  0  0  0  0  0  0  0  0  0  0  0
   -2.8971   -0.0769    0.0000 S   0  0  0  0  0  0  0  0  0  0  0  0
   -3.3722   -2.1582    0.0000 C   0  0  0  0  0  0  0  0  0  0  0  0
   -3.2859   -2.9787    0.0000 C   0  0  0  0  0  0  0  0  0  0  0  0
   -4.0396   -2.6431    0.0000 C   0  0  0  0  0  0  0  0  0  0  0  0
    0.7145   -0.4125    0.0000 C   0  0  0  0  0  0  0  0  0  0  0  0
    1.4289    0.0000    0.0000 C   0  0  0  0  0  0  0  0  0  0  0  0
    2.1434   -0.4125    0.0000 C   0  0  0  0  0  0  0  0  0  0  0  0
    2.8579    0.0000    0.0000 C   0  0  0  0  0  0  0  0  0  0  0  0
    3.5724   -0.4125    0.0000 C   0  0  0  0  0  0  0  0  0  0  0  0
    3.5724   -1.2375    0.0000 C   0  0  0  0  0  0  0  0  0  0  0  0
    2.8579   -1.6500    0.0000 C   0  0  0  0  0  0  0  0  0  0  0  0
    2.1434   -1.2375    0.0000 C   0  0  0  0  0  0  0  0  0  0  0  0
    1.4289   -1.6500    0.0000 O   0  0  0  0  0  0  0  0  0  0  0  0
    0.7145   -1.2375    0.0000 C   0  0  0  0  0  0  0  0  0  0  0  0
  1  2  2  0  0  0  0
  2  3  1  0  0  0  0
  3  4  1  0  0  0  0
  4  5  1  0  0  0  0
  5  6  2  0  0  0  0
  6  7  1  0  0  0  0
  7  8  2  0  0  0  0
  8  9  1  0  0  0  0
  5  9  1  0  0  0  0
  7 10  1  0  0  0  0
 10 11  1  0  0  0  0
 11 12  1  0  0  0  0
 10 12  1  0  0  0  0
  2 13  1  0  0  0  0
 13 14  2  0  0  0  0
 14 15  1  0  0  0  0
 15 16  2  0  0  0  0
 16 17  1  0  0  0  0
 17 18  2  0  0  0  0
 18 19  1  0  0  0  0
 19 20  2  0  0  0  0
 15 20  1  0  0  0  0
 20 21  1  0  0  0  0
 21 22  1  0  0  0  0
 13 22  1  0  0  0  0
M  END
> <ID>
CPD_4322

$$$$
CPD_4327
  Mrv1822 09091914012D          

 33 36  0  0  1  0            999 V2000
    0.7145   -2.0625    0.0000 H   0  0  0  0  0  0  0  0  0  0  0  0
    0.7145   -1.2375    0.0000 C   0  0  2  0  0  0  0  0  0  0  0  0
    0.0000   -1.6500    0.0000 C   0  0  0  0  0  0  0  0  0  0  0  0
   -0.7145   -1.2375    0.0000 N   0  0  0  0  0  0  0  0  0  0  0  0
   -1.4289   -1.6500    0.0000 C   0  0  0  0  0  0  0  0  0  0  0  0
   -2.1434   -1.2375    0.0000 C   0  0  0  0  0  0  0  0  0  0  0  0
   -2.8579   -1.6500    0.0000 C   0  0  0  0  0  0  0  0  0  0  0  0
   -2.8579   -2.4750    0.0000 C   0  0  0  0  0  0  0  0  0  0  0  0
   -3.5724   -2.8875    0.0000 C   0  0  0  0  0  0  0  0  0  0  0  0
   -4.2868   -2.4750    0.0000 C   0  0  0  0  0  0  0  0  0  0  0  0
   -5.0013   -2.8875    0.0000 O   0  0  0  0  0  0  0  0  0  0  0  0
   -5.7158   -2.4750    0.0000 C   0  0  0  0  0  0  0  0  0  0  0  0
   -4.2868   -1.6500    0.0000 C   0  0  0  0  0  0  0  0  0  0  0  0
   -5.0013   -1.2375    0.0000 O   0  0  0  0  0  0  0  0  0  0  0  0
   -5.0013   -0.4125    0.0000 C   0  0  0  0  0  0  0  0  0  0  0  0
   -3.5724   -1.2375    0.0000 C   0  0  0  0  0  0  0  0  0  0  0  0
    1.4289   -1.6500    0.0000 O   0  0  0  0  0  0  0  0  0  0  0  0
    2.1434   -1.2375    0.0000 C   0  0  0  0  0  0  0  0  0  0  0  0
    2.8579   -1.6500    0.0000 C   0  0  0  0  0  0  0  0  0  0  0  0
    3.6116   -1.3144    0.0000 N   0  0  0  0  0  0  0  0  0  0  0  0
    4.1636   -1.9275    0.0000 C   0  0  0  0  0  0  0  0  0  0  0  0
    3.7511   -2.6420    0.0000 C   0  0  0  0  0  0  0  0  0  0  0  0
    2.9441   -2.4705    0.0000 S   0  0  0  0  0  0  0  0  0  0  0  0
    4.9841   -1.8413    0.0000 C   0  0  0  0  0  0  0  0  0  0  0  0
    5.6515   -1.3564    0.0000 C   0  0  0  0  0  0  0  0  0  0  0  0
    5.7377   -2.1769    0.0000 C   0  0  0  0  0  0  0  0  0  0  0  0
    0.7145   -0.4125    0.0000 C   0  0  0  0  0  0  0  0  0  0  0  0
    0.0000   -0.0000    0.0000 C   0  0  0  0  0  0  0  0  0  0  0  0
    0.0000    0.8250    0.0000 C   0  0  0  0  0  0  0  0  0  0  0  0
    0.7145    1.2375    0.0000 C   0  0  0  0  0  0  0  0  0  0  0  0
    0.7145    2.0625    0.0000 O   0  0  0  0  0  0  0  0  0  0  0  0
    1.4289    0.8250    0.0000 C   0  0  0  0  0  0  0  0  0  0  0  0
    1.4289    0.0000    0.0000 C   0  0  0  0  0  0  0  0  0  0  0  0
  2  1  1  6  0  0  0
  2  3  1  0  0  0  0
  3  4  1  0  0  0  0
  4  5  1  0  0  0  0
  5  6  1  0  0  0  0
  6  7  1  0  0  0  0
  7  8  2  0  0  0  0
  8  9  1  0  0  0  0
  9 10  2  0  0  0  0
 10 11  1  0  0  0  0
 11 12  1  0  0  0  0
 10 13  1  0  0  0  0
 13 14  1  0  0  0  0
 14 15  1  0  0  0  0
 13 16  2  0  0  0  0
  7 16  1  0  0  0  0
  2 17  1  0  0  0  0
 17 18  1  0  0  0  0
 18 19  1  0  0  0  0
 19 20  2  0  0  0  0
 20 21  1  0  0  0  0
 21 22  2  0  0  0  0
 22 23  1  0  0  0  0
 19 23  1  0  0  0  0
 21 24  1  0  0  0  0
 24 25  1  0  0  0  0
 25 26  1  0  0  0  0
 24 26  1  0  0  0  0
  2 27  1  0  0  0  0
 27 28  2  0  0  0  0
 28 29  1  0  0  0  0
 29 30  2  0  0  0  0
 30 31  1  0  0  0  0
 30 32  1  0  0  0  0
 32 33  2  0  0  0  0
 27 33  1  0  0  0  0
M  END
> <ID>
CPD_4327

$$$$
CPD_4332
  Mrv1822 09091914012D          

 30 32  0  0  0  0            999 V2000
   -4.6267    0.6168    0.0000 C   0  0  0  0  0  0  0  0  0  0  0  0
   -3.9122    1.0293    0.0000 C   0  0  0  0  0  0  0  0  0  0  0  0
   -3.1977    0.6168    0.0000 O   0  0  0  0  0  0  0  0  0  0  0  0
   -2.4833    1.0293    0.0000 C   0  0  0  0  0  0  0  0  0  0  0  0
   -2.4833    1.8543    0.0000 O   0  0  0  0  0  0  0  0  0  0  0  0
   -1.7688    0.6168    0.0000 N   0  0  0  0  0  0  0  0  0  0  0  0
   -1.0543    1.0293    0.0000 C   0  0  0  0  0  0  0  0  0  0  0  0
   -0.3398    0.6168    0.0000 C   0  0  0  0  0  0  0  0  0  0  0  0
    0.3746    1.0293    0.0000 C   0  0  0  0  0  0  0  0  0  0  0  0
    0.3746    1.8543    0.0000 O   0  0  0  0  0  0  0  0  0  0  0  0
    1.0891    2.2668    0.0000 C   0  0  0  0  0  0  0  0  0  0  0  0
    1.6194    2.8988    0.0000 C   0  0  0  0  0  0  0  0  0  0  0  0
    2.4319    2.7555    0.0000 C   0  0  0  0  0  0  0  0  0  0  0  0
    2.7140    1.9803    0.0000 N   0  0  0  0  0  0  0  0  0  0  0  0
    3.5265    1.8370    0.0000 C   0  0  0  0  0  0  0  0  0  0  0  0
    2.1837    1.3483    0.0000 C   0  0  0  0  0  0  0  0  0  0  0  0
    1.3713    1.4915    0.0000 C   0  0  0  0  0  0  0  0  0  0  0  0
    0.5588    2.8988    0.0000 C   0  0  0  0  0  0  0  0  0  0  0  0
   -0.2537    2.7555    0.0000 C   0  0  0  0  0  0  0  0  0  0  0  0
   -0.7840    3.3875    0.0000 C   0  0  0  0  0  0  0  0  0  0  0  0
   -0.5018    4.1628    0.0000 C   0  0  0  0  0  0  0  0  0  0  0  0
    0.3107    4.3060    0.0000 C   0  0  0  0  0  0  0  0  0  0  0  0
    0.8410    3.6740    0.0000 C   0  0  0  0  0  0  0  0  0  0  0  0
    1.0891    0.6168    0.0000 C   0  0  0  0  0  0  0  0  0  0  0  0
    1.0891   -0.2082    0.0000 C   0  0  0  0  0  0  0  0  0  0  0  0
    0.3746   -0.6207    0.0000 C   0  0  0  0  0  0  0  0  0  0  0  0
   -0.3398   -0.2082    0.0000 C   0  0  0  0  0  0  0  0  0  0  0  0
    0.3746   -1.4457    0.0000 C   0  0  0  0  0  0  0  0  0  0  0  0
   -0.3398   -1.8582    0.0000 O   0  0  0  0  0  0  0  0  0  0  0  0
    1.0891   -1.8582    0.0000 O   0  0  0  0  0  0  0  0  0  0  0  0
  1  2  1  0  0  0  0
  2  3  1  0  0  0  0
  3  4  1  0  0  0  0
  4  5  2  0  0  0  0
  4  6  1  0  0  0  0
  6  7  1  0  0  0  0
  7  8  1  0  0  0  0
  8  9  2  0  0  0  0
  9 10  1  0  0  0  0
 10 11  1  0  0  0  0
 11 12  1  0  0  0  0
 12 13  1  0  0  0  0
 13 14  1  0  0  0  0
 14 15  1  0  0  0  0
 14 16  1  0  0  0  0
 16 17  1  0  0  0  0
 11 17  1  0  0  0  0
 11 18  1  0  0  0  0
 18 19  2  0  0  0  0
 19 20  1  0  0  0  0
 20 21  2  0  0  0  0
 21 22  1  0  0  0  0
 22 23  2  0  0  0  0
 18 23  1  0  0  0  0
  9 24  1  0  0  0  0
 24 25  2  0  0  0  0
 25 26  1  0  0  0  0
 26 27  2  0  0  0  0
  8 27  1  0  0  0  0
 26 28  1  0  0  0  0
 28 29  1  0  0  0  0
 28 30  2  0  0  0  0
M  END
> <ID>
CPD_4332

$$$$
CPD_4337
  Mrv1822 09091914012D          

 39 43  0  0  0  0            999 V2000
    0.7145    1.2375    0.0000 C   0  0  0  0  0  0  0  0  0  0  0  0
    1.4289    0.8250    0.0000 O   0  0  0  0  0  0  0  0  0  0  0  0
    1.4289    0.0000    0.0000 C   0  0  0  0  0  0  0  0  0  0  0  0
    2.1434   -0.4125    0.0000 C   0  0  0  0  0  0  0  0  0  0  0  0
    2.8579    0.0000    0.0000 O   0  0  0  0  0  0  0  0  0  0  0  0
    3.5724   -0.4125    0.0000 C   0  0  0  0  0  0  0  0  0  0  0  0
    4.2868   -0.0000    0.0000 N   0  0  0  0  0  0  0  0  0  0  0  0
    4.2868    0.8250    0.0000 C   0  0  0  0  0  0  0  0  0  0  0  0
    3.5724    1.2375    0.0000 C   0  0  0  0  0  0  0  0  0  0  0  0
    2.8579    0.8250    0.0000 C   0  0  0  0  0  0  0  0  0  0  0  0
    2.1434    1.2375    0.0000 C   0  0  0  0  0  0  0  0  0  0  0  0
    2.1434    2.0625    0.0000 C   0  0  0  0  0  0  0  0  0  0  0  0
    1.4289    2.4750    0.0000 F   0  0  0  0  0  0  0  0  0  0  0  0
    2.8579    2.4750    0.0000 C   0  0  0  0  0  0  0  0  0  0  0  0
    3.5724    2.0625    0.0000 C   0  0  0  0  0  0  0  0  0  0  0  0
    5.0013    1.2375    0.0000 C   0  0  0  0  0  0  0  0  0  0  0  0
    5.0013    2.0625    0.0000 C   0  0  0  0  0  0  0  0  0  0  0  0
    5.7158    2.4750    0.0000 C   0  0  0  0  0  0  0  0  0  0  0  0
    6.4302    2.0625    0.0000 C   0  0  0  0  0  0  0  0  0  0  0  0
    6.4302    1.2375    0.0000 C   0  0  0  0  0  0  0  0  0  0  0  0
    5.7158    0.8250    0.0000 C   0  0  0  0  0  0  0  0  0  0  0  0
    7.1447    2.4750    0.0000 C   0  0  0  0  0  0  0  0  0  0  0  0
    7.8592    2.8875    0.0000 N   0  0  0  0  0  0  0  0  0  0  0  0
    3.5724   -1.2375    0.0000 C   0  0  0  0  0  0  0  0  0  0  0  0
    2.8579   -1.6500    0.0000 C   0  0  0  0  0  0  0  0  0  0  0  0
    2.1434   -1.2375    0.0000 C   0  0  0  0  0  0  0  0  0  0  0  0
    1.4289   -1.6500    0.0000 C   0  0  0  0  0  0  0  0  0  0  0  0
    0.7145   -1.2375    0.0000 C   0  0  0  0  0  0  0  0  0  0  0  0
    0.7145   -0.4125    0.0000 C   0  0  0  0  0  0  0  0  0  0  0  0
    4.2868   -1.6500    0.0000 C   0  0  0  0  0  0  0  0  0  0  0  0
    4.2868   -2.4750    0.0000 O   0  0  0  0  0  0  0  0  0  0  0  0
    5.0013   -1.2375    0.0000 N   0  0  0  0  0  0  0  0  0  0  0  0
    5.7158   -1.6500    0.0000 C   0  0  0  0  0  0  0  0  0  0  0  0
    6.4302   -1.2375    0.0000 N   0  0  0  0  0  0  0  0  0  0  0  0
    7.1447   -1.6500    0.0000 C   0  0  0  0  0  0  0  0  0  0  0  0
    7.8592   -1.2375    0.0000 C   0  0  0  0  0  0  0  0  0  0  0  0
    7.1447   -2.4750    0.0000 C   0  0  0  0  0  0  0  0  0  0  0  0
    6.4302   -2.8875    0.0000 C   0  0  0  0  0  0  0  0  0  0  0  0
    5.7158   -2.4750    0.0000 C   0  0  0  0  0  0  0  0  0  0  0  0
  1  2  1  0  0  0  0
  2  3  1  0  0  0  0
  3  4  2  0  0  0  0
  4  5  1  0  0  0  0
  5  6  1  0  0  0  0
  6  7  2  0  0  0  0
  7  8  1  4  0  0  0
  8  9  1  0  0  0  0
  9 10  2  0  0  0  0
 10 11  1  0  0  0  0
 11 12  2  0  0  0  0
 12 13  1  0  0  0  0
 12 14  1  0  0  0  0
 14 15  2  0  0  0  0
  9 15  1  0  0  0  0
  8 16  1  0  0  0  0
 16 17  2  0  0  0  0
 17 18  1  0  0  0  0
 18 19  2  0  0  0  0
 19 20  1  0  0  0  0
 20 21  2  0  0  0  0
 16 21  1  0  0  0  0
 19 22  1  0  0  0  0
 22 23  3  0  0  0  0
  6 24  1  0  0  0  0
 24 25  2  0  0  0  0
 25 26  1  0  0  0  0
  4 26  1  0  0  0  0
 26 27  2  0  0  0  0
 27 28  1  0  0  0  0
 28 29  2  0  0  0  0
  3 29  1  0  0  0  0
 24 30  1  0  0  0  0
 30 31  2  0  0  0  0
 30 32  1  0  0  0  0
 32 33  1  0  0  0  0
 33 34  2  0  0  0  0
 34 35  1  0  0  0  0
 35 36  1  0  0  0  0
 35 37  2  0  0  0  0
 37 38  1  0  0  0  0
 38 39  2  0  0  0  0
 33 39  1  0  0  0  0
M  END
> <ID>
CPD_4337

$$$$
CPD_4342
  Mrv1822 09091914012D          

 33 35  0  0  1  0            999 V2000
    2.8579   -2.4750    0.0000 O   0  0  0  0  0  0  0  0  0  0  0  0
    2.8579   -1.6500    0.0000 C   0  0  2  0  0  0  0  0  0  0  0  0
    2.1434   -1.2375    0.0000 C   0  0  1  0  0  0  0  0  0  0  0  0
    2.1434   -0.4125    0.0000 O   0  0  0  0  0  0  0  0  0  0  0  0
    1.4289   -1.6500    0.0000 C   0  0  0  0  0  0  0  0  0  0  0  0
    1.4289   -2.4750    0.0000 O   0  0  0  0  0  0  0  0  0  0  0  0
    0.7145   -1.2375    0.0000 N   0  0  0  0  0  0  0  0  0  0  0  0
    0.0000   -1.6500    0.0000 C   0  0  0  0  0  0  0  0  0  0  0  0
   -0.7145   -1.2375    0.0000 C   0  0  0  0  0  0  0  0  0  0  0  0
   -1.4289   -1.6500    0.0000 C   0  0  0  0  0  0  0  0  0  0  0  0
   -2.1434   -1.2375    0.0000 C   0  0  0  0  0  0  0  0  0  0  0  0
   -2.1434   -0.4125    0.0000 C   0  0  0  0  0  0  0  0  0  0  0  0
   -2.8579   -0.0000    0.0000 F   0  0  0  0  0  0  0  0  0  0  0  0
   -1.4289   -0.0000    0.0000 C   0  0  0  0  0  0  0  0  0  0  0  0
   -0.7145   -0.4125    0.0000 C   0  0  0  0  0  0  0  0  0  0  0  0
    0.0000   -2.4750    0.0000 C   0  0  0  0  0  0  0  0  0  0  0  0
    0.7145   -2.8875    0.0000 C   0  0  0  0  0  0  0  0  0  0  0  0
    0.7145   -3.7125    0.0000 C   0  0  0  0  0  0  0  0  0  0  0  0
    0.0000   -4.1250    0.0000 C   0  0  0  0  0  0  0  0  0  0  0  0
   -0.7145   -3.7125    0.0000 C   0  0  0  0  0  0  0  0  0  0  0  0
   -0.7145   -2.8875    0.0000 C   0  0  0  0  0  0  0  0  0  0  0  0
    0.0000   -4.9500    0.0000 C   0  0  0  0  0  0  0  0  0  0  0  0
    0.0000   -5.7750    0.0000 N   0  0  0  0  0  0  0  0  0  0  0  0
    0.7145   -0.4125    0.0000 C   0  0  0  0  0  0  0  0  0  0  0  0
    0.0000    0.0000    0.0000 C   0  0  0  0  0  0  0  0  0  0  0  0
    0.0000    0.8250    0.0000 C   0  0  0  0  0  0  0  0  0  0  0  0
    0.7145    1.2375    0.0000 C   0  0  0  0  0  0  0  0  0  0  0  0
    0.7145    2.0625    0.0000 F   0  0  0  0  0  0  0  0  0  0  0  0
    1.4289    0.8250    0.0000 C   0  0  0  0  0  0  0  0  0  0  0  0
    1.4289    0.0000    0.0000 C   0  0  0  0  0  0  0  0  0  0  0  0
    3.5724   -1.2375    0.0000 C   0  0  0  0  0  0  0  0  0  0  0  0
    4.2868   -1.6500    0.0000 O   0  0  0  0  0  0  0  0  0  0  0  0
    3.5724   -0.4125    0.0000 O   0  0  0  0  0  0  0  0  0  0  0  0
  2  1  1  6  0  0  0
  2  3  1  0  0  0  0
  3  4  1  6  0  0  0
  3  5  1  0  0  0  0
  5  6  2  0  0  0  0
  5  7  1  0  0  0  0
  7  8  1  0  0  0  0
  8  9  1  0  0  0  0
  9 10  2  0  0  0  0
 10 11  1  0  0  0  0
 11 12  2  0  0  0  0
 12 13  1  0  0  0  0
 12 14  1  0  0  0  0
 14 15  2  0  0  0  0
  9 15  1  0  0  0  0
  8 16  1  0  0  0  0
 16 17  2  0  0  0  0
 17 18  1  0  0  0  0
 18 19  2  0  0  0  0
 19 20  1  0  0  0  0
 20 21  2  0  0  0  0
 16 21  1  0  0  0  0
 19 22  1  0  0  0  0
 22 23  3  0  0  0  0
  7 24  1  0  0  0  0
 24 25  2  0  0  0  0
 25 26  1  0  0  0  0
 26 27  2  0  0  0  0
 27 28  1  0  0  0  0
 27 29  1  0  0  0  0
 29 30  2  0  0  0  0
 24 30  1  0  0  0  0
  2 31  1  0  0  0  0
 31 32  1  0  0  0  0
 31 33  2  0  0  0  0
M  END
> <ID>
CPD_4342

$$$$
CPD_4347
  Mrv1822 09091914012D          

 25 27  0  0  1  0            999 V2000
    1.4289   -1.6500    0.0000 O   0  0  0  0  0  0  0  0  0  0  0  0
    1.4289   -2.4750    0.0000 C   0  0  1  0  0  0  0  0  0  0  0  0
    2.1434   -2.8875    0.0000 C   0  0  0  0  0  0  0  0  0  0  0  0
    2.1434   -3.7125    0.0000 C   0  0  1  0  0  0  0  0  0  0  0  0
    2.8579   -4.1250    0.0000 O   0  0  0  0  0  0  0  0  0  0  0  0
    1.4289   -4.1250    0.0000 C   0  0  0  0  0  0  0  0  0  0  0  0
    0.7145   -3.7125    0.0000 C   0  0  2  0  0  0  0  0  0  0  0  0
    0.7145   -2.8875    0.0000 C   0  0  0  0  0  0  0  0  0  0  0  0
    0.0000   -4.1250    0.0000 O   0  0  0  0  0  0  0  0  0  0  0  0
    0.0000   -4.9500    0.0000 C   0  0  0  0  0  0  0  0  0  0  0  0
    0.7145   -5.3625    0.0000 C   0  0  0  0  0  0  0  0  0  0  0  0
    1.4289   -4.9500    0.0000 C   0  0  0  0  0  0  0  0  0  0  0  0
    2.1434   -5.3625    0.0000 C   0  0  0  0  0  0  0  0  0  0  0  0
    2.1434   -6.1875    0.0000 C   0  0  0  0  0  0  0  0  0  0  0  0
    2.8579   -6.6000    0.0000 F   0  0  0  0  0  0  0  0  0  0  0  0
    1.4289   -6.6000    0.0000 C   0  0  0  0  0  0  0  0  0  0  0  0
    0.7145   -6.1875    0.0000 C   0  0  0  0  0  0  0  0  0  0  0  0
   -0.7145   -5.3625    0.0000 C   0  0  0  0  0  0  0  0  0  0  0  0
   -0.7145   -6.1875    0.0000 C   0  0  0  0  0  0  0  0  0  0  0  0
   -1.4289   -6.6000    0.0000 C   0  0  0  0  0  0  0  0  0  0  0  0
   -2.1434   -6.1875    0.0000 C   0  0  0  0  0  0  0  0  0  0  0  0
   -2.1434   -5.3625    0.0000 C   0  0  0  0  0  0  0  0  0  0  0  0
   -1.4289   -4.9500    0.0000 C   0  0  0  0  0  0  0  0  0  0  0  0
   -2.8579   -6.6000    0.0000 C   0  0  0  0  0  0  0  0  0  0  0  0
   -3.5724   -7.0125    0.0000 N   0  0  0  0  0  0  0  0  0  0  0  0
  2  1  1  1  0  0  0
  2  3  1  0  0  0  0
  4  3  1  0  0  0  0
  4  5  1  1  0  0  0
  4  6  1  0  0  0  0
  7  6  1  0  0  0  0
  7  8  1  0  0  0  0
  2  8  1  0  0  0  0
  7  9  1  1  0  0  0
  9 10  1  0  0  0  0
 10 11  1  0  0  0  0
 11 12  2  0  0  0  0
 12 13  1  0  0  0  0
 13 14  2  0  0  0  0
 14 15  1  0  0  0  0
 14 16  1  0  0  0  0
 16 17  2  0  0  0  0
 11 17  1  0  0  0  0
 10 18  1  0  0  0  0
 18 19  2  0  0  0  0
 19 20  1  0  0  0  0
 20 21  2  0  0  0  0
 21 22  1  0  0  0  0
 22 23  2  0  0  0  0
 18 23  1  0  0  0  0
 21 24  1  0  0  0  0
 24 25  3  0  0  0  0
M  END
> <ID>
CPD_4347

$$$$
CPD_4352
  Mrv1822 09091914012D          

 29 31  0  0  0  0            999 V2000
    2.1434   -4.5375    0.0000 F   0  0  0  0  0  0  0  0  0  0  0  0
    1.4289   -4.1250    0.0000 C   0  0  0  0  0  0  0  0  0  0  0  0
    0.7145   -4.5375    0.0000 C   0  0  0  0  0  0  0  0  0  0  0  0
    0.0000   -4.1250    0.0000 C   0  0  0  0  0  0  0  0  0  0  0  0
    0.0000   -3.3000    0.0000 C   0  0  0  0  0  0  0  0  0  0  0  0
    0.7145   -2.8875    0.0000 C   0  0  0  0  0  0  0  0  0  0  0  0
    1.4289   -3.3000    0.0000 C   0  0  0  0  0  0  0  0  0  0  0  0
    0.7145   -2.0625    0.0000 C   0  0  0  0  0  0  0  0  0  0  0  0
    1.4289   -1.6500    0.0000 O   0  0  0  0  0  0  0  0  0  0  0  0
    2.1434   -2.0625    0.0000 C   0  0  0  0  0  0  0  0  0  0  0  0
    2.1434   -2.8875    0.0000 O   0  0  0  0  0  0  0  0  0  0  0  0
    2.8579   -1.6500    0.0000 C   0  0  0  0  0  0  0  0  0  0  0  0
    3.5724   -2.0625    0.0000 C   0  0  0  0  0  0  0  0  0  0  0  0
    4.2868   -1.6500    0.0000 C   0  0  0  0  0  0  0  0  0  0  0  0
    4.2868   -0.8250    0.0000 F   0  0  0  0  0  0  0  0  0  0  0  0
    5.0013   -2.0625    0.0000 C   0  0  0  0  0  0  0  0  0  0  0  0
    5.7158   -1.6500    0.0000 Cl  0  0  0  0  0  0  0  0  0  0  0  0
    5.0013   -2.8875    0.0000 C   0  0  0  0  0  0  0  0  0  0  0  0
    5.7158   -3.3000    0.0000 F   0  0  0  0  0  0  0  0  0  0  0  0
    4.2868   -3.3000    0.0000 C   0  0  0  0  0  0  0  0  0  0  0  0
    3.5724   -2.8875    0.0000 C   0  0  0  0  0  0  0  0  0  0  0  0
    0.0000   -1.6500    0.0000 C   0  0  0  0  0  0  0  0  0  0  0  0
   -0.7145   -2.0625    0.0000 C   0  0  0  0  0  0  0  0  0  0  0  0
   -1.4289   -1.6500    0.0000 C   0  0  0  0  0  0  0  0  0  0  0  0
   -1.4289   -0.8250    0.0000 C   0  0  0  0  0  0  0  0  0  0  0  0
   -0.7145   -0.4125    0.0000 C   0  0  0  0  0  0  0  0  0  0  0  0
    0.0000   -0.8250    0.0000 C   0  0  0  0  0  0  0  0  0  0  0  0
   -2.1434   -0.4125    0.0000 C   0  0  0  0  0  0  0  0  0  0  0  0
   -2.8579   -0.0000    0.0000 N   0  0  0  0  0  0  0  0  0  0  0  0
  1  2  1  0  0  0  0
  2  3  2  0  0  0  0
  3  4  1  0  0  0  0
  4  5  2  0  0  0  0
  5  6  1  0  0  0  0
  6  7  2  0  0  0  0
  2  7  1  0  0  0  0
  6  8  1  0  0  0  0
  8  9  1  0  0  0  0
  9 10  1  0  0  0  0
 10 11  2  0  0  0  0
 10 12  1  0  0  0  0
 12 13  1  0  0  0  0
 13 14  2  0  0  0  0
 14 15  1  0  0  0  0
 14 16  1  0  0  0  0
 16 17  1  0  0  0  0
 16 18  2  0  0  0  0
 18 19  1  0  0  0  0
 18 20  1  0  0  0  0
 20 21  2  0  0  0  0
 13 21  1  0  0  0  0
  8 22  1  0  0  0  0
 22 23  2  0  0  0  0
 23 24  1  0  0  0  0
 24 25  2  0  0  0  0
 25 26  1  0  0  0  0
 26 27  2  0  0  0  0
 22 27  1  0  0  0  0
 25 28  1  0  0  0  0
 28 29  3  0  0  0  0
M  END
> <ID>
CPD_4352

$$$$
CPD_4357
  Mrv1822 09091914012D          

 31 33  0  0  0  0            999 V2000
   -1.9520   -3.6020    0.0000 C   0  0  0  0  0  0  0  0  0  0  0  0
   -1.1270   -3.6020    0.0000 C   0  0  0  0  0  0  0  0  0  0  0  0
   -0.7145   -2.8875    0.0000 C   0  0  0  0  0  0  0  0  0  0  0  0
    0.1105   -2.8875    0.0000 C   0  0  0  0  0  0  0  0  0  0  0  0
    0.5230   -2.1730    0.0000 C   0  0  0  0  0  0  0  0  0  0  0  0
    0.1105   -1.4586    0.0000 O   0  0  0  0  0  0  0  0  0  0  0  0
    1.3480   -2.1730    0.0000 N   0  0  0  0  0  0  0  0  0  0  0  0
    1.7605   -2.8875    0.0000 C   0  0  0  0  0  0  0  0  0  0  0  0
    2.5855   -2.8875    0.0000 C   0  0  0  0  0  0  0  0  0  0  0  0
    2.9980   -2.1730    0.0000 C   0  0  0  0  0  0  0  0  0  0  0  0
    3.8230   -2.1730    0.0000 C   0  0  0  0  0  0  0  0  0  0  0  0
    4.2355   -2.8875    0.0000 C   0  0  0  0  0  0  0  0  0  0  0  0
    3.8230   -3.6020    0.0000 C   0  0  0  0  0  0  0  0  0  0  0  0
    2.9980   -3.6020    0.0000 C   0  0  0  0  0  0  0  0  0  0  0  0
    5.0605   -2.8875    0.0000 C   0  0  0  0  0  0  0  0  0  0  0  0
    5.8855   -2.8875    0.0000 N   0  0  0  0  0  0  0  0  0  0  0  0
    1.3480   -3.6020    0.0000 C   0  0  0  0  0  0  0  0  0  0  0  0
    1.7605   -4.3164    0.0000 C   0  0  0  0  0  0  0  0  0  0  0  0
    1.3480   -5.0309    0.0000 C   0  0  0  0  0  0  0  0  0  0  0  0
    1.7605   -5.7454    0.0000 F   0  0  0  0  0  0  0  0  0  0  0  0
    0.5230   -5.0309    0.0000 C   0  0  0  0  0  0  0  0  0  0  0  0
    0.1105   -4.3164    0.0000 C   0  0  0  0  0  0  0  0  0  0  0  0
    0.5230   -3.6020    0.0000 C   0  0  0  0  0  0  0  0  0  0  0  0
    1.7605   -1.4586    0.0000 C   0  0  0  0  0  0  0  0  0  0  0  0
    1.3480   -0.7441    0.0000 C   0  0  0  0  0  0  0  0  0  0  0  0
    0.5230   -0.7441    0.0000 C   0  0  0  0  0  0  0  0  0  0  0  0
    1.7605   -0.0296    0.0000 C   0  0  0  0  0  0  0  0  0  0  0  0
    2.5855   -0.0296    0.0000 C   0  0  0  0  0  0  0  0  0  0  0  0
    2.9980    0.6849    0.0000 N   0  0  0  0  0  0  0  0  0  0  0  0
    2.9980   -0.7441    0.0000 C   0  0  0  0  0  0  0  0  0  0  0  0
    2.5855   -1.4586    0.0000 C   0  0  0  0  0  0  0  0  0  0  0  0
  1  2  1  0  0  0  0
  2  3  1  0  0  0  0
  3  4  1  0  0  0  0
  4  5  1  0  0  0  0
  5  6  2  0  0  0  0
  5  7  1  0  0  0  0
  7  8  1  0  0  0  0
  8  9  1  0  0  0  0
  9 10  2  0  0  0  0
 10 11  1  0  0  0  0
 11 12  2  0  0  0  0
 12 13  1  0  0  0  0
 13 14  2  0  0  0  0
  9 14  1  0  0  0  0
 12 15  1  0  0  0  0
 15 16  3  0  0  0  0
  8 17  1  0  0  0  0
 17 18  2  0  0  0  0
 18 19  1  0  0  0  0
 19 20  1  0  0  0  0
 19 21  2  0  0  0  0
 21 22  1  0  0  0  0
 22 23  2  0  0  0  0
 17 23  1  0  0  0  0
  7 24  1  0  0  0  0
 24 25  2  0  0  0  0
 25 26  1  0  0  0  0
 25 27  1  0  0  0  0
 27 28  2  0  0  0  0
 28 29  1  0  0  0  0
 28 30  1  0  0  0  0
 30 31  2  0  0  0  0
 24 31  1  0  0  0  0
M  END
> <ID>
CPD_4357

$$$$
CPD_4362
  Mrv1822 09091914012D          

 32 34  0  0  0  0            999 V2000
   -7.1275   -3.9038    0.0000 C   0  0  0  0  0  0  0  0  0  0  0  0
   -6.3070   -3.9900    0.0000 C   0  0  0  0  0  0  0  0  0  0  0  0
   -5.7550   -3.3769    0.0000 N   0  0  0  0  0  0  0  0  0  0  0  0
   -5.0013   -3.7125    0.0000 N   0  0  0  0  0  0  0  0  0  0  0  0
   -5.0875   -4.5330    0.0000 C   0  0  0  0  0  0  0  0  0  0  0  0
   -4.4744   -5.0850    0.0000 C   0  0  0  0  0  0  0  0  0  0  0  0
   -5.8945   -4.7045    0.0000 C   0  0  0  0  0  0  0  0  0  0  0  0
   -4.2868   -3.3000    0.0000 C   0  0  0  0  0  0  0  0  0  0  0  0
   -4.2868   -2.4750    0.0000 N   0  0  0  0  0  0  0  0  0  0  0  0
   -3.5724   -2.0625    0.0000 N   0  0  0  0  0  0  0  0  0  0  0  0
   -2.8579   -2.4750    0.0000 C   0  0  0  0  0  0  0  0  0  0  0  0
   -2.1434   -2.0625    0.0000 N   0  0  0  0  0  0  0  0  0  0  0  0
   -1.4289   -2.4750    0.0000 C   0  0  0  0  0  0  0  0  0  0  0  0
   -1.8414   -3.1895    0.0000 C   0  0  0  0  0  0  0  0  0  0  0  0
   -1.4289   -3.9039    0.0000 O   0  0  0  0  0  0  0  0  0  0  0  0
   -1.0164   -1.7605    0.0000 C   0  0  0  0  0  0  0  0  0  0  0  0
   -0.1914   -1.7605    0.0000 O   0  0  0  0  0  0  0  0  0  0  0  0
   -0.7145   -2.8875    0.0000 C   0  0  0  0  0  0  0  0  0  0  0  0
    0.0000   -2.4750    0.0000 O   0  0  0  0  0  0  0  0  0  0  0  0
    0.7145   -2.8875    0.0000 C   0  0  0  0  0  0  0  0  0  0  0  0
    1.4289   -2.4750    0.0000 C   0  0  0  0  0  0  0  0  0  0  0  0
    2.1434   -2.8875    0.0000 N   0  0  0  0  0  0  0  0  0  0  0  0
    2.8579   -2.4750    0.0000 C   0  0  0  0  0  0  0  0  0  0  0  0
    3.5724   -2.8875    0.0000 C   0  0  0  0  0  0  0  0  0  0  0  0
    4.2868   -2.4750    0.0000 C   0  0  0  0  0  0  0  0  0  0  0  0
    5.0013   -2.8875    0.0000 C   0  0  0  0  0  0  0  0  0  0  0  0
    5.0013   -3.7125    0.0000 C   0  0  0  0  0  0  0  0  0  0  0  0
    5.7158   -4.1250    0.0000 F   0  0  0  0  0  0  0  0  0  0  0  0
    4.2868   -4.1250    0.0000 C   0  0  0  0  0  0  0  0  0  0  0  0
    3.5724   -3.7125    0.0000 C   0  0  0  0  0  0  0  0  0  0  0  0
   -2.8579   -3.3000    0.0000 N   0  0  0  0  0  0  0  0  0  0  0  0
   -3.5724   -3.7125    0.0000 N   0  0  0  0  0  0  0  0  0  0  0  0
  1  2  1  0  0  0  0
  2  3  2  0  0  0  0
  3  4  1  0  0  0  0
  4  5  1  0  0  0  0
  5  6  1  0  0  0  0
  5  7  2  0  0  0  0
  2  7  1  0  0  0  0
  4  8  1  0  0  0  0
  8  9  2  0  0  0  0
  9 10  1  0  0  0  0
 10 11  2  0  0  0  0
 11 12  1  0  0  0  0
 12 13  1  0  0  0  0
 13 14  1  0  0  0  0
 14 15  1  0  0  0  0
 13 16  1  0  0  0  0
 16 17  1  0  0  0  0
 13 18  1  0  0  0  0
 18 19  1  0  0  0  0
 19 20  1  0  0  0  0
 20 21  1  0  0  0  0
 21 22  1  0  0  0  0
 22 23  1  0  0  0  0
 23 24  1  0  0  0  0
 24 25  2  0  0  0  0
 25 26  1  0  0  0  0
 26 27  2  0  0  0  0
 27 28  1  0  0  0  0
 27 29  1  0  0  0  0
 29 30  2  0  0  0  0
 24 30  1  0  0  0  0
 11 31  1  0  0  0  0
 31 32  2  0  0  0  0
  8 32  1  0  0  0  0
M  END
> <ID>
CPD_4362

$$$$
CPD_4367
  Mrv1822 09091914012D          

 33 35  0  0  0  0            999 V2000
   -2.5565   -6.5927    0.0000 C   0  0  0  0  0  0  0  0  0  0  0  0
   -2.5565   -7.4177    0.0000 C   0  0  0  0  0  0  0  0  0  0  0  0
   -1.8890   -7.9026    0.0000 N   0  0  0  0  0  0  0  0  0  0  0  0
   -2.1440   -8.6872    0.0000 N   0  0  0  0  0  0  0  0  0  0  0  0
   -2.9690   -8.6872    0.0000 C   0  0  0  0  0  0  0  0  0  0  0  0
   -3.4539   -9.3546    0.0000 C   0  0  0  0  0  0  0  0  0  0  0  0
   -3.2239   -7.9026    0.0000 C   0  0  0  0  0  0  0  0  0  0  0  0
   -1.6591   -9.3546    0.0000 C   0  0  0  0  0  0  0  0  0  0  0  0
   -0.8386   -9.2684    0.0000 N   0  0  0  0  0  0  0  0  0  0  0  0
   -0.3537   -9.9358    0.0000 N   0  0  0  0  0  0  0  0  0  0  0  0
   -0.6892  -10.6895    0.0000 C   0  0  0  0  0  0  0  0  0  0  0  0
   -0.2043  -11.3570    0.0000 N   0  0  0  0  0  0  0  0  0  0  0  0
   -0.5399  -12.1106    0.0000 C   0  0  0  0  0  0  0  0  0  0  0  0
   -1.2935  -11.7751    0.0000 C   0  0  0  0  0  0  0  0  0  0  0  0
   -1.9610  -12.2600    0.0000 O   0  0  0  0  0  0  0  0  0  0  0  0
    0.2138  -12.4462    0.0000 C   0  0  0  0  0  0  0  0  0  0  0  0
    0.3001  -13.2667    0.0000 O   0  0  0  0  0  0  0  0  0  0  0  0
   -0.8754  -12.8643    0.0000 C   0  0  0  0  0  0  0  0  0  0  0  0
   -0.3905  -13.5317    0.0000 N   0  0  0  0  0  0  0  0  0  0  0  0
   -0.7260  -14.2854    0.0000 C   0  0  0  0  0  0  0  0  0  0  0  0
   -1.5465  -14.3717    0.0000 N   0  0  0  0  0  0  0  0  0  0  0  0
   -0.2411  -14.9529    0.0000 N   0  0  0  0  0  0  0  0  0  0  0  0
    0.5794  -14.8666    0.0000 C   0  0  0  0  0  0  0  0  0  0  0  0
    0.9149  -14.1129    0.0000 N   0  0  0  0  0  0  0  0  0  0  0  0
    1.0643  -15.5341    0.0000 N   0  0  0  0  0  0  0  0  0  0  0  0
    1.8760  -15.3868    0.0000 C   0  0  0  0  0  0  0  0  0  0  0  0
    2.4973  -15.9296    0.0000 C   0  0  0  0  0  0  0  0  0  0  0  0
    2.4603  -16.7537    0.0000 C   0  0  0  0  0  0  0  0  0  0  0  0
    1.7929  -17.2386    0.0000 C   0  0  0  0  0  0  0  0  0  0  0  0
    0.9976  -17.0192    0.0000 C   0  0  0  0  0  0  0  0  0  0  0  0
    0.6733  -16.2606    0.0000 C   0  0  0  0  0  0  0  0  0  0  0  0
   -1.5097  -10.7758    0.0000 N   0  0  0  0  0  0  0  0  0  0  0  0
   -1.9946  -10.1083    0.0000 N   0  0  0  0  0  0  0  0  0  0  0  0
  1  2  1  0  0  0  0
  2  3  2  0  0  0  0
  3  4  1  0  0  0  0
  4  5  1  0  0  0  0
  5  6  1  0  0  0  0
  5  7  2  0  0  0  0
  2  7  1  0  0  0  0
  4  8  1  0  0  0  0
  8  9  2  0  0  0  0
  9 10  1  0  0  0  0
 10 11  2  0  0  0  0
 11 12  1  0  0  0  0
 12 13  1  0  0  0  0
 13 14  1  0  0  0  0
 14 15  1  0  0  0  0
 13 16  1  0  0  0  0
 16 17  1  0  0  0  0
 13 18  1  0  0  0  0
 19 18  1  4  0  0  0
 19 20  2  0  0  0  0
 20 21  1  0  0  0  0
 20 22  1  0  0  0  0
 22 23  1  0  0  0  0
 23 24  2  0  0  0  0
 23 25  1  0  0  0  0
 25 26  1  0  0  0  0
 26 27  1  0  0  0  0
 27 28  1  0  0  0  0
 28 29  1  0  0  0  0
 29 30  1  0  0  0  0
 30 31  1  0  0  0  0
 25 31  1  0  0  0  0
 11 32  1  0  0  0  0
 32 33  2  0  0  0  0
  8 33  1  0  0  0  0
M  END
> <ID>
CPD_4367

$$$$
CPD_4372
  Mrv1822 09091914012D          

 27 30  0  0  1  0            999 V2000
    0.7145    1.2375    0.0000 C   0  0  0  0  0  0  0  0  0  0  0  0
    0.0000    0.8250    0.0000 O   0  0  0  0  0  0  0  0  0  0  0  0
    0.0000   -0.0000    0.0000 C   0  0  0  0  0  0  0  0  0  0  0  0
   -0.7145   -0.4125    0.0000 C   0  0  0  0  0  0  0  0  0  0  0  0
   -0.7145   -1.2375    0.0000 C   0  0  0  0  0  0  0  0  0  0  0  0
    0.0000   -1.6500    0.0000 N   0  0  0  0  0  0  0  0  0  0  0  0
    0.7145   -1.2375    0.0000 C   0  0  0  0  0  0  0  0  0  0  0  0
    0.7145   -0.4125    0.0000 C   0  0  0  0  0  0  0  0  0  0  0  0
    1.4289   -0.0000    0.0000 C   0  0  0  0  0  0  0  0  0  0  0  0
    2.1434   -0.4125    0.0000 C   0  0  0  0  0  0  0  0  0  0  0  0
    2.1434   -1.2375    0.0000 C   0  0  0  0  0  0  0  0  0  0  0  0
    1.4289   -1.6500    0.0000 C   0  0  0  0  0  0  0  0  0  0  0  0
   -1.4289   -1.6500    0.0000 C   0  0  0  0  0  0  0  0  0  0  0  0
   -1.4289   -2.4750    0.0000 C   0  0  0  0  0  0  0  0  0  0  0  0
   -2.1434   -2.8875    0.0000 C   0  0  0  0  0  0  0  0  0  0  0  0
   -2.1434   -3.7125    0.0000 N   0  0  0  0  0  0  0  0  0  0  0  0
   -2.8579   -4.1250    0.0000 C   0  0  1  0  0  0  0  0  0  0  0  0
   -3.5724   -3.7125    0.0000 C   0  0  0  0  0  0  0  0  0  0  0  0
   -4.2868   -4.1250    0.0000 C   0  0  0  0  0  0  0  0  0  0  0  0
   -4.2868   -4.9500    0.0000 C   0  0  0  0  0  0  0  0  0  0  0  0
   -3.5724   -5.3625    0.0000 C   0  0  0  0  0  0  0  0  0  0  0  0
   -2.8579   -4.9500    0.0000 C   0  0  2  0  0  0  0  0  0  0  0  0
   -2.1434   -5.3625    0.0000 O   0  0  0  0  0  0  0  0  0  0  0  0
   -2.8579   -2.4750    0.0000 C   0  0  0  0  0  0  0  0  0  0  0  0
   -3.5724   -2.8875    0.0000 O   0  0  0  0  0  0  0  0  0  0  0  0
   -2.8579   -1.6500    0.0000 C   0  0  0  0  0  0  0  0  0  0  0  0
   -2.1434   -1.2375    0.0000 C   0  0  0  0  0  0  0  0  0  0  0  0
  1  2  1  0  0  0  0
  2  3  1  0  0  0  0
  3  4  2  0  0  0  0
  4  5  1  0  0  0  0
  5  6  2  0  0  0  0
  6  7  1  0  0  0  0
  7  8  2  0  0  0  0
  3  8  1  0  0  0  0
  8  9  1  0  0  0  0
  9 10  2  0  0  0  0
 10 11  1  0  0  0  0
 11 12  2  0  0  0  0
  7 12  1  0  0  0  0
  5 13  1  0  0  0  0
 13 14  2  0  0  0  0
 14 15  1  0  0  0  0
 15 16  1  0  0  0  0
 17 16  1  6  0  0  0
 17 18  1  0  0  0  0
 18 19  1  0  0  0  0
 19 20  1  0  0  0  0
 20 21  1  0  0  0  0
 22 21  1  0  0  0  0
 17 22  1  0  0  0  0
 22 23  1  1  0  0  0
 15 24  2  0  0  0  0
 24 25  1  0  0  0  0
 24 26  1  0  0  0  0
 26 27  2  0  0  0  0
 13 27  1  0  0  0  0
M  END
> <ID>
CPD_4372

$$$$
CPD_4377
  Mrv1822 09091914012D          

 26 28  0  0  0  0            999 V2000
   -5.7158   -9.0750    0.0000 C   0  0  0  0  0  0  0  0  0  0  0  0
   -5.0013   -8.6625    0.0000 O   0  0  0  0  0  0  0  0  0  0  0  0
   -5.0013   -7.8375    0.0000 C   0  0  0  0  0  0  0  0  0  0  0  0
   -4.2868   -7.4250    0.0000 C   0  0  0  0  0  0  0  0  0  0  0  0
   -4.2868   -6.6000    0.0000 C   0  0  0  0  0  0  0  0  0  0  0  0
   -5.0013   -6.1875    0.0000 N   0  0  0  0  0  0  0  0  0  0  0  0
   -5.7158   -6.6000    0.0000 C   0  0  0  0  0  0  0  0  0  0  0  0
   -5.7158   -7.4250    0.0000 C   0  0  0  0  0  0  0  0  0  0  0  0
   -6.4302   -7.8375    0.0000 C   0  0  0  0  0  0  0  0  0  0  0  0
   -7.1447   -7.4250    0.0000 C   0  0  0  0  0  0  0  0  0  0  0  0
   -7.1447   -6.6000    0.0000 C   0  0  0  0  0  0  0  0  0  0  0  0
   -6.4302   -6.1875    0.0000 C   0  0  0  0  0  0  0  0  0  0  0  0
   -3.5724   -6.1875    0.0000 C   0  0  0  0  0  0  0  0  0  0  0  0
   -3.5724   -5.3625    0.0000 C   0  0  0  0  0  0  0  0  0  0  0  0
   -2.8579   -4.9500    0.0000 C   0  0  0  0  0  0  0  0  0  0  0  0
   -2.8579   -4.1250    0.0000 O   0  0  0  0  0  0  0  0  0  0  0  0
   -2.1434   -5.3625    0.0000 C   0  0  0  0  0  0  0  0  0  0  0  0
   -1.4289   -4.9500    0.0000 O   0  0  0  0  0  0  0  0  0  0  0  0
   -0.7145   -5.3625    0.0000 C   0  0  0  0  0  0  0  0  0  0  0  0
    0.0000   -4.9500    0.0000 C   0  0  0  0  0  0  0  0  0  0  0  0
    0.7145   -5.3625    0.0000 O   0  0  0  0  0  0  0  0  0  0  0  0
    1.4289   -4.9500    0.0000 C   0  0  0  0  0  0  0  0  0  0  0  0
    2.1434   -5.3625    0.0000 C   0  0  0  0  0  0  0  0  0  0  0  0
    2.8579   -4.9500    0.0000 O   0  0  0  0  0  0  0  0  0  0  0  0
   -2.1434   -6.1875    0.0000 C   0  0  0  0  0  0  0  0  0  0  0  0
   -2.8579   -6.6000    0.0000 C   0  0  0  0  0  0  0  0  0  0  0  0
  1  2  1  0  0  0  0
  2  3  1  0  0  0  0
  3  4  2  0  0  0  0
  4  5  1  0  0  0  0
  5  6  2  0  0  0  0
  6  7  1  0  0  0  0
  7  8  2  0  0  0  0
  3  8  1  0  0  0  0
  8  9  1  0  0  0  0
  9 10  2  0  0  0  0
 10 11  1  0  0  0  0
 11 12  2  0  0  0  0
  7 12  1  0  0  0  0
  5 13  1  0  0  0  0
 13 14  2  0  0  0  0
 14 15  1  0  0  0  0
 15 16  1  0  0  0  0
 15 17  2  0  0  0  0
 17 18  1  0  0  0  0
 18 19  1  0  0  0  0
 19 20  1  0  0  0  0
 20 21  1  0  0  0  0
 21 22  1  0  0  0  0
 22 23  1  0  0  0  0
 23 24  1  0  0  0  0
 17 25  1  0  0  0  0
 25 26  2  0  0  0  0
 13 26  1  0  0  0  0
M  END
> <ID>
CPD_4377

$$$$
CPD_4382
  Mrv1822 09091914012D          

 33 35  0  0  1  0            999 V2000
    1.7603   -3.1041    0.0000 C   0  0  0  0  0  0  0  0  0  0  0  0
    1.7603   -3.9291    0.0000 C   0  0  0  0  0  0  0  0  0  0  0  0
    2.4748   -4.3416    0.0000 C   0  0  0  0  0  0  0  0  0  0  0  0
    2.4748   -5.1666    0.0000 C   0  0  0  0  0  0  0  0  0  0  0  0
    3.1422   -5.6515    0.0000 C   0  0  0  0  0  0  0  0  0  0  0  0
    2.8873   -6.4361    0.0000 N   0  0  0  0  0  0  0  0  0  0  0  0
    3.3722   -7.1036    0.0000 C   0  0  0  0  0  0  0  0  0  0  0  0
    4.1927   -7.0173    0.0000 C   0  0  2  0  0  0  0  0  0  0  0  0
    4.6052   -6.3029    0.0000 C   0  0  0  0  0  0  0  0  0  0  0  0
    5.4121   -6.4744    0.0000 N   0  0  0  0  0  0  0  0  0  0  0  0
    5.4984   -7.2949    0.0000 C   0  0  0  0  0  0  0  0  0  0  0  0
    4.7447   -7.6304    0.0000 C   0  0  2  0  0  0  0  0  0  0  0  0
    4.5732   -8.4374    0.0000 N   0  0  0  0  0  0  0  0  0  0  0  0
    3.7885   -8.6923    0.0000 C   0  0  0  0  0  0  0  0  0  0  0  0
    3.6170   -9.4993    0.0000 O   0  0  0  0  0  0  0  0  0  0  0  0
    3.1754   -8.1403    0.0000 O   0  0  0  0  0  0  0  0  0  0  0  0
    2.3908   -8.3953    0.0000 C   0  0  0  0  0  0  0  0  0  0  0  0
    2.1359   -7.6106    0.0000 C   0  0  0  0  0  0  0  0  0  0  0  0
    2.6458   -9.1799    0.0000 C   0  0  0  0  0  0  0  0  0  0  0  0
    1.6062   -8.6502    0.0000 C   0  0  0  0  0  0  0  0  0  0  0  0
    6.0252   -5.9224    0.0000 C   0  0  0  0  0  0  0  0  0  0  0  0
    5.8537   -5.1154    0.0000 O   0  0  0  0  0  0  0  0  0  0  0  0
    6.8098   -6.1773    0.0000 O   0  0  0  0  0  0  0  0  0  0  0  0
    7.4229   -5.6253    0.0000 C   0  0  0  0  0  0  0  0  0  0  0  0
    8.2076   -5.8802    0.0000 C   0  0  0  0  0  0  0  0  0  0  0  0
    8.8207   -5.3282    0.0000 C   0  0  0  0  0  0  0  0  0  0  0  0
    9.6053   -5.5831    0.0000 C   0  0  0  0  0  0  0  0  0  0  0  0
    9.7768   -6.3901    0.0000 C   0  0  0  0  0  0  0  0  0  0  0  0
    9.1637   -6.9421    0.0000 C   0  0  0  0  0  0  0  0  0  0  0  0
    8.3791   -6.6872    0.0000 C   0  0  0  0  0  0  0  0  0  0  0  0
    2.0623   -6.4361    0.0000 C   0  0  0  0  0  0  0  0  0  0  0  0
    1.5773   -7.1036    0.0000 O   0  0  0  0  0  0  0  0  0  0  0  0
    1.8073   -5.6515    0.0000 C   0  0  0  0  0  0  0  0  0  0  0  0
  1  2  1  0  0  0  0
  2  3  1  0  0  0  0
  3  4  1  0  0  0  0
  4  5  1  0  0  0  0
  5  6  1  0  0  0  0
  6  7  1  0  0  0  0
  8  7  1  6  0  0  0
  8  9  1  0  0  0  0
  9 10  1  0  0  0  0
 10 11  1  0  0  0  0
 12 11  1  0  0  0  0
  8 12  1  0  0  0  0
 12 13  1  6  0  0  0
 13 14  1  0  0  0  0
 14 15  2  0  0  0  0
 14 16  1  0  0  0  0
 16 17  1  0  0  0  0
 17 18  1  0  0  0  0
 17 19  1  0  0  0  0
 17 20  1  0  0  0  0
 10 21  1  0  0  0  0
 21 22  2  0  0  0  0
 21 23  1  0  0  0  0
 23 24  1  0  0  0  0
 24 25  1  0  0  0  0
 25 26  2  0  0  0  0
 26 27  1  0  0  0  0
 27 28  2  0  0  0  0
 28 29  1  0  0  0  0
 29 30  2  0  0  0  0
 25 30  1  0  0  0  0
  6 31  1  0  0  0  0
 31 32  2  0  0  0  0
 31 33  1  0  0  0  0
  4 33  1  0  0  0  0
M  END
> <ID>
CPD_4382

$$$$
CPD_4387
  Mrv1822 09091914012D          

 32 35  0  0  0  0            999 V2000
   -5.7158   -6.6000    0.0000 N   0  0  0  0  0  0  0  0  0  0  0  0
   -5.0013   -6.1875    0.0000 C   0  0  0  0  0  0  0  0  0  0  0  0
   -5.0013   -5.3625    0.0000 C   0  0  0  0  0  0  0  0  0  0  0  0
   -5.7158   -4.9500    0.0000 F   0  0  0  0  0  0  0  0  0  0  0  0
   -4.2868   -4.9500    0.0000 C   0  0  0  0  0  0  0  0  0  0  0  0
   -3.5724   -5.3625    0.0000 C   0  0  0  0  0  0  0  0  0  0  0  0
   -2.8579   -4.9500    0.0000 O   0  0  0  0  0  0  0  0  0  0  0  0
   -2.8579   -4.1250    0.0000 C   0  0  0  0  0  0  0  0  0  0  0  0
   -3.5724   -3.7125    0.0000 O   0  0  0  0  0  0  0  0  0  0  0  0
   -2.1434   -3.7125    0.0000 C   0  0  0  0  0  0  0  0  0  0  0  0
   -2.1434   -2.8875    0.0000 C   0  0  0  0  0  0  0  0  0  0  0  0
   -1.4289   -2.4750    0.0000 C   0  0  0  0  0  0  0  0  0  0  0  0
   -0.7145   -2.8875    0.0000 C   0  0  0  0  0  0  0  0  0  0  0  0
    0.0000   -2.4750    0.0000 N   0  0  0  0  0  0  0  0  0  0  0  0
    0.0000   -1.6500    0.0000 C   0  0  0  0  0  0  0  0  0  0  0  0
   -0.7145   -1.2375    0.0000 O   0  0  0  0  0  0  0  0  0  0  0  0
    0.7145   -1.2375    0.0000 C   0  0  0  0  0  0  0  0  0  0  0  0
    0.7145   -0.4125    0.0000 C   0  0  0  0  0  0  0  0  0  0  0  0
    1.4289    0.0000    0.0000 C   0  0  0  0  0  0  0  0  0  0  0  0
    2.1434   -0.4125    0.0000 C   0  0  0  0  0  0  0  0  0  0  0  0
    2.8579    0.0000    0.0000 C   0  0  0  0  0  0  0  0  0  0  0  0
    3.5724   -0.4125    0.0000 C   0  0  0  0  0  0  0  0  0  0  0  0
    3.5724   -1.2375    0.0000 C   0  0  0  0  0  0  0  0  0  0  0  0
    2.8579   -1.6500    0.0000 C   0  0  0  0  0  0  0  0  0  0  0  0
    2.1434   -1.2375    0.0000 C   0  0  0  0  0  0  0  0  0  0  0  0
    1.4289   -1.6500    0.0000 C   0  0  0  0  0  0  0  0  0  0  0  0
    1.4289   -2.4750    0.0000 O   0  0  0  0  0  0  0  0  0  0  0  0
   -0.7145   -3.7125    0.0000 C   0  0  0  0  0  0  0  0  0  0  0  0
   -1.4289   -4.1250    0.0000 C   0  0  0  0  0  0  0  0  0  0  0  0
   -3.5724   -6.1875    0.0000 C   0  0  0  0  0  0  0  0  0  0  0  0
   -2.8579   -6.6000    0.0000 F   0  0  0  0  0  0  0  0  0  0  0  0
   -4.2868   -6.6000    0.0000 C   0  0  0  0  0  0  0  0  0  0  0  0
  1  2  1  0  0  0  0
  2  3  2  0  0  0  0
  3  4  1  0  0  0  0
  3  5  1  0  0  0  0
  5  6  2  0  0  0  0
  6  7  1  0  0  0  0
  7  8  1  0  0  0  0
  8  9  2  0  0  0  0
  8 10  1  0  0  0  0
 10 11  2  0  0  0  0
 11 12  1  0  0  0  0
 12 13  2  0  0  0  0
 13 14  1  0  0  0  0
 14 15  1  0  0  0  0
 15 16  2  0  0  0  0
 15 17  1  0  0  0  0
 17 18  2  0  0  0  0
 18 19  1  0  0  0  0
 19 20  2  0  0  0  0
 20 21  1  0  0  0  0
 21 22  2  0  0  0  0
 22 23  1  0  0  0  0
 23 24  2  0  0  0  0
 24 25  1  0  0  0  0
 20 25  1  0  0  0  0
 25 26  2  0  0  0  0
 17 26  1  0  0  0  0
 26 27  1  0  0  0  0
 13 28  1  0  0  0  0
 28 29  2  0  0  0  0
 10 29  1  0  0  0  0
  6 30  1  0  0  0  0
 30 31  1  0  0  0  0
 30 32  2  0  0  0  0
  2 32  1  0  0  0  0
M  END
> <ID>
CPD_4387

$$$$
CPD_4392
  Mrv1822 09091914012D          

 22 25  0  0  0  0            999 V2000
   -4.4894   -1.3267    0.0000 F   0  0  0  0  0  0  0  0  0  0  0  0
   -3.7048   -1.0717    0.0000 C   0  0  0  0  0  0  0  0  0  0  0  0
   -3.5333   -0.2648    0.0000 C   0  0  0  0  0  0  0  0  0  0  0  0
   -4.1464    0.2873    0.0000 F   0  0  0  0  0  0  0  0  0  0  0  0
   -2.7487   -0.0098    0.0000 C   0  0  0  0  0  0  0  0  0  0  0  0
   -2.1356   -0.5619    0.0000 C   0  0  0  0  0  0  0  0  0  0  0  0
   -2.3071   -1.3688    0.0000 C   0  0  0  0  0  0  0  0  0  0  0  0
   -3.0917   -1.6238    0.0000 C   0  0  0  0  0  0  0  0  0  0  0  0
   -1.4211   -0.1494    0.0000 N   0  0  0  0  0  0  0  0  0  0  0  0
   -0.6674   -0.4849    0.0000 C   0  0  0  0  0  0  0  0  0  0  0  0
   -0.0000    0.0000    0.0000 C   0  0  0  0  0  0  0  0  0  0  0  0
   -0.0000    0.8250    0.0000 C   0  0  0  0  0  0  0  0  0  0  0  0
    0.7846    1.0799    0.0000 O   0  0  0  0  0  0  0  0  0  0  0  0
    1.2695    0.4125    0.0000 C   0  0  0  0  0  0  0  0  0  0  0  0
    0.7846   -0.2549    0.0000 C   0  0  0  0  0  0  0  0  0  0  0  0
    1.6820    1.1270    0.0000 C   0  0  0  0  0  0  0  0  0  0  0  0
    2.5070    1.1270    0.0000 C   0  0  0  0  0  0  0  0  0  0  0  0
    2.9195    0.4125    0.0000 N   0  0  0  0  0  0  0  0  0  0  0  0
    2.5070   -0.3020    0.0000 C   0  0  0  0  0  0  0  0  0  0  0  0
    1.6820   -0.3020    0.0000 C   0  0  0  0  0  0  0  0  0  0  0  0
   -1.5926    0.6576    0.0000 C   0  0  0  0  0  0  0  0  0  0  0  0
   -2.4131    0.7438    0.0000 C   0  0  0  0  0  0  0  0  0  0  0  0
  1  2  1  0  0  0  0
  2  3  2  0  0  0  0
  3  4  1  0  0  0  0
  3  5  1  0  0  0  0
  5  6  2  0  0  0  0
  6  7  1  0  0  0  0
  7  8  2  0  0  0  0
  2  8  1  0  0  0  0
  6  9  1  0  0  0  0
  9 10  1  0  0  0  0
 10 11  1  0  0  0  0
 11 12  1  0  0  0  0
 12 13  1  0  0  0  0
 13 14  1  0  0  0  0
 14 15  1  0  0  0  0
 11 15  1  0  0  0  0
 14 16  1  0  0  0  0
 16 17  1  0  0  0  0
 17 18  1  0  0  0  0
 18 19  1  0  0  0  0
 19 20  1  0  0  0  0
 14 20  1  0  0  0  0
  9 21  1  0  0  0  0
 21 22  2  0  0  0  0
  5 22  1  0  0  0  0
M  END
> <ID>
CPD_4392

$$$$
CPD_4397
  Mrv1822 09091914012D          

 22 24  0  0  0  0            999 V2000
   -2.5835   -2.7602    0.0000 C   0  0  0  0  0  0  0  0  0  0  0  0
   -2.6698   -1.9397    0.0000 C   0  0  0  0  0  0  0  0  0  0  0  0
   -3.4234   -1.6041    0.0000 C   0  0  0  0  0  0  0  0  0  0  0  0
   -3.5097   -0.7837    0.0000 C   0  0  0  0  0  0  0  0  0  0  0  0
   -4.2633   -0.4481    0.0000 C   0  0  0  0  0  0  0  0  0  0  0  0
   -2.8422   -0.2987    0.0000 C   0  0  0  0  0  0  0  0  0  0  0  0
   -2.9285    0.5218    0.0000 C   0  0  0  0  0  0  0  0  0  0  0  0
   -3.0147    1.3422    0.0000 N   0  0  0  0  0  0  0  0  0  0  0  0
   -2.0886   -0.6343    0.0000 C   0  0  0  0  0  0  0  0  0  0  0  0
   -1.4211   -0.1494    0.0000 O   0  0  0  0  0  0  0  0  0  0  0  0
   -0.6674   -0.4849    0.0000 C   0  0  0  0  0  0  0  0  0  0  0  0
   -0.0000    0.0000    0.0000 C   0  0  0  0  0  0  0  0  0  0  0  0
   -0.0000    0.8250    0.0000 C   0  0  0  0  0  0  0  0  0  0  0  0
    0.7846    1.0799    0.0000 O   0  0  0  0  0  0  0  0  0  0  0  0
    1.2695    0.4125    0.0000 C   0  0  0  0  0  0  0  0  0  0  0  0
    0.7846   -0.2549    0.0000 C   0  0  0  0  0  0  0  0  0  0  0  0
    1.6820    1.1270    0.0000 C   0  0  0  0  0  0  0  0  0  0  0  0
    2.5070    1.1270    0.0000 C   0  0  0  0  0  0  0  0  0  0  0  0
    2.9195    0.4125    0.0000 N   0  0  0  0  0  0  0  0  0  0  0  0
    2.5070   -0.3020    0.0000 C   0  0  0  0  0  0  0  0  0  0  0  0
    1.6820   -0.3020    0.0000 C   0  0  0  0  0  0  0  0  0  0  0  0
   -2.0023   -1.4548    0.0000 N   0  0  0  0  0  0  0  0  0  0  0  0
  1  2  1  0  0  0  0
  2  3  2  0  0  0  0
  3  4  1  0  0  0  0
  4  5  1  0  0  0  0
  4  6  2  0  0  0  0
  6  7  1  0  0  0  0
  7  8  3  0  0  0  0
  6  9  1  0  0  0  0
  9 10  1  0  0  0  0
 10 11  1  0  0  0  0
 11 12  1  0  0  0  0
 12 13  1  0  0  0  0
 13 14  1  0  0  0  0
 14 15  1  0  0  0  0
 15 16  1  0  0  0  0
 12 16  1  0  0  0  0
 15 17  1  0  0  0  0
 17 18  1  0  0  0  0
 18 19  1  0  0  0  0
 19 20  1  0  0  0  0
 20 21  1  0  0  0  0
 15 21  1  0  0  0  0
  9 22  2  0  0  0  0
  2 22  1  0  0  0  0
M  END
> <ID>
CPD_4397

$$$$
CPD_4402
  Mrv1822 09091914012D          

 18 19  0  0  0  0            999 V2000
   -0.1105   -0.4125    0.0000 C   0  0  0  0  0  0  0  0  0  0  0  0
    0.7145   -0.4125    0.0000 S   0  0  0  0  0  0  0  0  0  0  0  0
    1.5395   -0.4125    0.0000 O   0  0  0  0  0  0  0  0  0  0  0  0
    0.7145    0.4125    0.0000 O   0  0  0  0  0  0  0  0  0  0  0  0
    0.7145   -1.2375    0.0000 C   0  0  0  0  0  0  0  0  0  0  0  0
    0.0470   -1.7224    0.0000 C   0  0  0  0  0  0  0  0  0  0  0  0
    0.3020   -2.5070    0.0000 C   0  0  0  0  0  0  0  0  0  0  0  0
    1.1270   -2.5070    0.0000 C   0  0  0  0  0  0  0  0  0  0  0  0
    1.3819   -1.7224    0.0000 N   0  0  0  0  0  0  0  0  0  0  0  0
    2.1665   -1.4675    0.0000 C   0  0  0  0  0  0  0  0  0  0  0  0
    2.3381   -0.6605    0.0000 C   0  0  0  0  0  0  0  0  0  0  0  0
    3.1227   -0.4056    0.0000 C   0  0  0  0  0  0  0  0  0  0  0  0
    3.7358   -0.9576    0.0000 C   0  0  0  0  0  0  0  0  0  0  0  0
    3.5642   -1.7646    0.0000 C   0  0  0  0  0  0  0  0  0  0  0  0
    2.7796   -2.0195    0.0000 C   0  0  0  0  0  0  0  0  0  0  0  0
    2.6081   -2.8265    0.0000 N   0  0  0  0  0  0  0  0  0  0  0  0
    3.2942    0.4014    0.0000 C   0  0  0  0  0  0  0  0  0  0  0  0
    3.4657    1.2084    0.0000 N   0  0  0  0  0  0  0  0  0  0  0  0
  1  2  1  0  0  0  0
  2  3  2  0  0  0  0
  2  4  2  0  0  0  0
  2  5  1  0  0  0  0
  5  6  2  0  0  0  0
  6  7  1  0  0  0  0
  7  8  2  0  0  0  0
  8  9  1  0  0  0  0
  5  9  1  0  0  0  0
  9 10  1  0  0  0  0
 10 11  2  0  0  0  0
 11 12  1  0  0  0  0
 12 13  2  0  0  0  0
 13 14  1  0  0  0  0
 14 15  2  0  0  0  0
 10 15  1  0  0  0  0
 15 16  1  0  0  0  0
 12 17  1  0  0  0  0
 17 18  3  0  0  0  0
M  END
> <ID>
CPD_4402

$$$$
CPD_4407
  Mrv1822 09091914012D          

 26 29  0  0  0  0            999 V2000
   -0.6284   -2.1269    0.0000 N   0  0  0  0  0  0  0  0  0  0  0  0
   -1.4534   -2.1269    0.0000 C   0  0  0  0  0  0  0  0  0  0  0  0
   -1.8659   -2.8414    0.0000 C   0  0  0  0  0  0  0  0  0  0  0  0
   -2.6909   -2.8414    0.0000 C   0  0  0  0  0  0  0  0  0  0  0  0
   -3.1034   -2.1269    0.0000 C   0  0  0  0  0  0  0  0  0  0  0  0
   -2.6909   -1.4124    0.0000 C   0  0  0  0  0  0  0  0  0  0  0  0
   -1.8659   -1.4124    0.0000 C   0  0  0  0  0  0  0  0  0  0  0  0
   -1.4534   -0.6979    0.0000 N   0  0  0  0  0  0  0  0  0  0  0  0
   -0.6284   -0.6979    0.0000 C   0  0  0  0  0  0  0  0  0  0  0  0
   -0.1435   -1.3654    0.0000 N   0  0  0  0  0  0  0  0  0  0  0  0
    0.6411   -1.1104    0.0000 C   0  0  0  0  0  0  0  0  0  0  0  0
    0.6411   -0.2854    0.0000 C   0  0  0  0  0  0  0  0  0  0  0  0
    1.3556    0.1271    0.0000 C   0  0  0  0  0  0  0  0  0  0  0  0
    2.0701   -0.2854    0.0000 N   0  0  0  0  0  0  0  0  0  0  0  0
    2.7845    0.1271    0.0000 C   0  0  0  0  0  0  0  0  0  0  0  0
    3.4990   -0.2854    0.0000 C   0  0  0  0  0  0  0  0  0  0  0  0
    4.2135    0.1271    0.0000 C   0  0  0  0  0  0  0  0  0  0  0  0
    4.9279   -0.2854    0.0000 C   0  0  0  0  0  0  0  0  0  0  0  0
    4.9279   -1.1104    0.0000 C   0  0  0  0  0  0  0  0  0  0  0  0
    4.2135   -1.5229    0.0000 C   0  0  0  0  0  0  0  0  0  0  0  0
    3.4990   -1.1104    0.0000 C   0  0  0  0  0  0  0  0  0  0  0  0
    2.0701   -1.1104    0.0000 C   0  0  0  0  0  0  0  0  0  0  0  0
    1.3556   -1.5229    0.0000 C   0  0  0  0  0  0  0  0  0  0  0  0
   -0.1435   -0.0305    0.0000 S   0  0  0  0  0  0  0  0  0  0  0  0
   -3.9284   -2.1269    0.0000 C   0  0  0  0  0  0  0  0  0  0  0  0
   -4.7534   -2.1269    0.0000 N   0  0  0  0  0  0  0  0  0  0  0  0
  1  2  1  0  0  0  0
  2  3  2  0  0  0  0
  3  4  1  0  0  0  0
  4  5  2  0  0  0  0
  5  6  1  0  0  0  0
  6  7  2  0  0  0  0
  2  7  1  0  0  0  0
  7  8  1  0  0  0  0
  8  9  1  0  0  0  0
  9 10  2  0  0  0  0
 10 11  1  0  0  0  0
 11 12  2  0  0  0  0
 12 13  1  0  0  0  0
 13 14  1  0  0  0  0
 14 15  1  0  0  0  0
 15 16  1  0  0  0  0
 16 17  2  0  0  0  0
 17 18  1  0  0  0  0
 18 19  2  0  0  0  0
 19 20  1  0  0  0  0
 20 21  2  0  0  0  0
 16 21  1  0  0  0  0
 14 22  1  0  0  0  0
 22 23  1  0  0  0  0
 11 23  1  0  0  0  0
 12 24  1  0  0  0  0
  9 24  1  0  0  0  0
  5 25  1  0  0  0  0
 25 26  3  0  0  0  0
M  END
> <ID>
CPD_4407

$$$$
CPD_4412
  Mrv1822 09091914012D          

 20 20  0  0  0  0            999 V2000
    4.1294   -2.8973    0.0000 C   0  0  0  0  0  0  0  0  0  0  0  0
    3.8593   -2.1177    0.0000 C   0  0  0  0  0  0  0  0  0  0  0  0
    3.0492   -1.9618    0.0000 C   0  0  0  0  0  0  0  0  0  0  0  0
    2.5091   -2.5855    0.0000 N   0  0  0  0  0  0  0  0  0  0  0  0
    1.6990   -2.4296    0.0000 C   0  0  0  0  0  0  0  0  0  0  0  0
    1.1589   -3.0532    0.0000 C   0  0  0  0  0  0  0  0  0  0  0  0
    1.4289   -3.8327    0.0000 C   0  0  0  0  0  0  0  0  0  0  0  0
    0.8889   -4.4564    0.0000 C   0  0  0  0  0  0  0  0  0  0  0  0
    1.1589   -5.2359    0.0000 F   0  0  0  0  0  0  0  0  0  0  0  0
    0.0787   -4.3005    0.0000 C   0  0  0  0  0  0  0  0  0  0  0  0
   -0.1913   -3.5209    0.0000 C   0  0  0  0  0  0  0  0  0  0  0  0
    0.3488   -2.8973    0.0000 C   0  0  0  0  0  0  0  0  0  0  0  0
    1.4289   -1.6500    0.0000 C   0  0  0  0  0  0  0  0  0  0  0  0
    2.2085   -1.3800    0.0000 F   0  0  0  0  0  0  0  0  0  0  0  0
    0.6494   -1.9200    0.0000 F   0  0  0  0  0  0  0  0  0  0  0  0
    1.1589   -0.8704    0.0000 F   0  0  0  0  0  0  0  0  0  0  0  0
    4.3994   -1.4941    0.0000 C   0  0  0  0  0  0  0  0  0  0  0  0
    5.2096   -1.6500    0.0000 C   0  0  0  0  0  0  0  0  0  0  0  0
    5.7497   -1.0264    0.0000 O   0  0  0  0  0  0  0  0  0  0  0  0
    5.4796   -2.4296    0.0000 O   0  0  0  0  0  0  0  0  0  0  0  0
  1  2  1  0  0  0  0
  2  3  1  0  0  0  0
  3  4  1  0  0  0  0
  4  5  1  0  0  0  0
  5  6  1  0  0  0  0
  6  7  2  0  0  0  0
  7  8  1  0  0  0  0
  8  9  1  0  0  0  0
  8 10  2  0  0  0  0
 10 11  1  0  0  0  0
 11 12  2  0  0  0  0
  6 12  1  0  0  0  0
  5 13  1  0  0  0  0
 13 14  1  0  0  0  0
 13 15  1  0  0  0  0
 13 16  1  0  0  0  0
  2 17  1  0  0  0  0
 17 18  1  0  0  0  0
 18 19  1  0  0  0  0
 18 20  2  0  0  0  0
M  END
> <ID>
CPD_4412

$$$$
CPD_4417
  Mrv1822 09091914012D          

 25 26  0  0  0  0            999 V2000
    2.1434    2.8875    0.0000 C   0  0  0  0  0  0  0  0  0  0  0  0
    2.1434    2.0625    0.0000 C   0  0  0  0  0  0  0  0  0  0  0  0
    1.4289    1.6500    0.0000 C   0  0  0  0  0  0  0  0  0  0  0  0
    1.4289    0.8250    0.0000 O   0  0  0  0  0  0  0  0  0  0  0  0
    0.7145    0.4125    0.0000 C   0  0  0  0  0  0  0  0  0  0  0  0
    0.7145   -0.4125    0.0000 C   0  0  0  0  0  0  0  0  0  0  0  0
    1.4289   -0.8250    0.0000 C   0  0  0  0  0  0  0  0  0  0  0  0
    1.4289   -1.6500    0.0000 N   0  0  0  0  0  0  0  0  0  0  0  0
    2.1434   -2.0625    0.0000 C   0  0  0  0  0  0  0  0  0  0  0  0
    2.1434   -2.8875    0.0000 C   0  0  0  0  0  0  0  0  0  0  0  0
    2.8579   -3.3000    0.0000 C   0  0  0  0  0  0  0  0  0  0  0  0
    2.8579   -4.1250    0.0000 C   0  0  0  0  0  0  0  0  0  0  0  0
    3.5724   -4.5375    0.0000 F   0  0  0  0  0  0  0  0  0  0  0  0
    2.1434   -4.5375    0.0000 C   0  0  0  0  0  0  0  0  0  0  0  0
    1.4289   -4.1250    0.0000 C   0  0  0  0  0  0  0  0  0  0  0  0
    1.4289   -3.3000    0.0000 C   0  0  0  0  0  0  0  0  0  0  0  0
    2.8579   -1.6500    0.0000 C   0  0  0  0  0  0  0  0  0  0  0  0
    3.2704   -2.3645    0.0000 F   0  0  0  0  0  0  0  0  0  0  0  0
    2.4454   -0.9355    0.0000 F   0  0  0  0  0  0  0  0  0  0  0  0
    3.5724   -1.2375    0.0000 F   0  0  0  0  0  0  0  0  0  0  0  0
    0.0000   -0.8250    0.0000 C   0  0  0  0  0  0  0  0  0  0  0  0
   -0.7145   -0.4125    0.0000 C   0  0  0  0  0  0  0  0  0  0  0  0
   -1.4289   -0.8250    0.0000 Cl  0  0  0  0  0  0  0  0  0  0  0  0
   -0.7145    0.4125    0.0000 C   0  0  0  0  0  0  0  0  0  0  0  0
    0.0000    0.8250    0.0000 C   0  0  0  0  0  0  0  0  0  0  0  0
  1  2  1  0  0  0  0
  2  3  1  0  0  0  0
  3  4  1  0  0  0  0
  4  5  1  0  0  0  0
  5  6  2  0  0  0  0
  6  7  1  0  0  0  0
  7  8  1  0  0  0  0
  8  9  1  0  0  0  0
  9 10  1  0  0  0  0
 10 11  2  0  0  0  0
 11 12  1  0  0  0  0
 12 13  1  0  0  0  0
 12 14  2  0  0  0  0
 14 15  1  0  0  0  0
 15 16  2  0  0  0  0
 10 16  1  0  0  0  0
  9 17  1  0  0  0  0
 17 18  1  0  0  0  0
 17 19  1  0  0  0  0
 17 20  1  0  0  0  0
  6 21  1  0  0  0  0
 21 22  2  0  0  0  0
 22 23  1  0  0  0  0
 22 24  1  0  0  0  0
 24 25  2  0  0  0  0
  5 25  1  0  0  0  0
M  END
> <ID>
CPD_4417

$$$$
CPD_4422
  Mrv1822 09091914012D          

 28 31  0  0  0  0            999 V2000
   -1.5025   -0.4721    0.0000 O   0  0  0  0  0  0  0  0  0  0  0  0
   -1.7575    0.3126    0.0000 C   0  0  0  0  0  0  0  0  0  0  0  0
   -2.5644    0.4841    0.0000 O   0  0  0  0  0  0  0  0  0  0  0  0
   -1.2054    0.9256    0.0000 C   0  0  0  0  0  0  0  0  0  0  0  0
   -0.3984    0.7541    0.0000 C   0  0  0  0  0  0  0  0  0  0  0  0
   -0.1435   -0.0305    0.0000 C   0  0  0  0  0  0  0  0  0  0  0  0
   -0.6284   -0.6979    0.0000 C   0  0  0  0  0  0  0  0  0  0  0  0
   -0.1435   -1.3654    0.0000 N   0  0  0  0  0  0  0  0  0  0  0  0
    0.6411   -1.1104    0.0000 C   0  0  0  0  0  0  0  0  0  0  0  0
    0.6411   -0.2854    0.0000 C   0  0  0  0  0  0  0  0  0  0  0  0
    1.3556    0.1271    0.0000 C   0  0  0  0  0  0  0  0  0  0  0  0
    2.0701   -0.2854    0.0000 C   0  0  0  0  0  0  0  0  0  0  0  0
    2.7845    0.1271    0.0000 Br  0  0  0  0  0  0  0  0  0  0  0  0
    2.0701   -1.1104    0.0000 C   0  0  0  0  0  0  0  0  0  0  0  0
    1.3556   -1.5229    0.0000 C   0  0  0  0  0  0  0  0  0  0  0  0
   -1.4604    1.7103    0.0000 N   0  0  0  0  0  0  0  0  0  0  0  0
   -2.2673    1.8818    0.0000 C   0  0  0  0  0  0  0  0  0  0  0  0
   -2.8804    1.3298    0.0000 C   0  0  0  0  0  0  0  0  0  0  0  0
   -3.5949    1.7423    0.0000 C   0  0  0  0  0  0  0  0  0  0  0  0
   -3.4234    2.5492    0.0000 N   0  0  0  0  0  0  0  0  0  0  0  0
   -2.6029    2.6355    0.0000 C   0  0  0  0  0  0  0  0  0  0  0  0
   -3.9754    3.1623    0.0000 C   0  0  0  0  0  0  0  0  0  0  0  0
   -4.7824    2.9908    0.0000 C   0  0  0  0  0  0  0  0  0  0  0  0
   -5.3344    3.6039    0.0000 C   0  0  0  0  0  0  0  0  0  0  0  0
   -5.0795    4.3885    0.0000 C   0  0  0  0  0  0  0  0  0  0  0  0
   -5.6315    5.0016    0.0000 Br  0  0  0  0  0  0  0  0  0  0  0  0
   -4.2725    4.5600    0.0000 C   0  0  0  0  0  0  0  0  0  0  0  0
   -3.7205    3.9469    0.0000 N   0  0  0  0  0  0  0  0  0  0  0  0
  1  2  1  0  0  0  0
  2  3  2  0  0  0  0
  2  4  1  0  0  0  0
  4  5  1  0  0  0  0
  5  6  1  0  0  0  0
  6  7  2  0  0  0  0
  7  8  1  0  0  0  0
  8  9  1  0  0  0  0
  9 10  2  0  0  0  0
  6 10  1  0  0  0  0
 10 11  1  0  0  0  0
 11 12  2  0  0  0  0
 12 13  1  0  0  0  0
 12 14  1  0  0  0  0
 14 15  2  0  0  0  0
  9 15  1  0  0  0  0
  4 16  1  0  0  0  0
 16 17  1  0  0  0  0
 17 18  1  0  0  0  0
 18 19  1  0  0  0  0
 19 20  1  0  0  0  0
 20 21  1  0  0  0  0
 17 21  1  0  0  0  0
 20 22  1  0  0  0  0
 22 23  2  0  0  0  0
 23 24  1  0  0  0  0
 24 25  2  0  0  0  0
 25 26  1  0  0  0  0
 25 27  1  0  0  0  0
 27 28  2  0  0  0  0
 22 28  1  0  0  0  0
M  END
> <ID>
CPD_4422

$$$$
CPD_4427
  Mrv1822 09091914012D          

 19 20  0  0  0  0            999 V2000
    0.3323   -4.5956    0.0000 N   0  0  0  0  0  0  0  0  0  0  0  0
    1.0468   -4.1831    0.0000 C   0  0  0  0  0  0  0  0  0  0  0  0
    1.7613   -4.5956    0.0000 C   0  0  0  0  0  0  0  0  0  0  0  0
    1.7613   -5.4206    0.0000 N   0  0  0  0  0  0  0  0  0  0  0  0
    2.4757   -4.1831    0.0000 C   0  0  0  0  0  0  0  0  0  0  0  0
    2.4757   -3.3581    0.0000 O   0  0  0  0  0  0  0  0  0  0  0  0
    3.1902   -4.5956    0.0000 O   0  0  0  0  0  0  0  0  0  0  0  0
    3.9047   -4.1831    0.0000 C   0  0  0  0  0  0  0  0  0  0  0  0
    3.9909   -3.3626    0.0000 C   0  0  0  0  0  0  0  0  0  0  0  0
    4.7979   -3.1911    0.0000 C   0  0  0  0  0  0  0  0  0  0  0  0
    5.2104   -3.9056    0.0000 N   0  0  0  0  0  0  0  0  0  0  0  0
    4.6583   -4.5187    0.0000 C   0  0  0  0  0  0  0  0  0  0  0  0
    6.0309   -3.9918    0.0000 C   0  0  0  0  0  0  0  0  0  0  0  0
    6.5158   -3.3244    0.0000 C   0  0  0  0  0  0  0  0  0  0  0  0
    7.3363   -3.4106    0.0000 C   0  0  0  0  0  0  0  0  0  0  0  0
    7.6718   -4.1643    0.0000 C   0  0  0  0  0  0  0  0  0  0  0  0
    8.4923   -4.2505    0.0000 Br  0  0  0  0  0  0  0  0  0  0  0  0
    7.1869   -4.8317    0.0000 C   0  0  0  0  0  0  0  0  0  0  0  0
    6.3664   -4.7455    0.0000 N   0  0  0  0  0  0  0  0  0  0  0  0
  1  2  1  0  0  0  0
  2  3  1  0  0  0  0
  3  4  1  0  0  0  0
  3  5  1  0  0  0  0
  5  6  2  0  0  0  0
  5  7  1  0  0  0  0
  7  8  1  0  0  0  0
  8  9  1  0  0  0  0
  9 10  1  0  0  0  0
 10 11  1  0  0  0  0
 11 12  1  0  0  0  0
  8 12  1  0  0  0  0
 11 13  1  0  0  0  0
 13 14  2  0  0  0  0
 14 15  1  0  0  0  0
 15 16  2  0  0  0  0
 16 17  1  0  0  0  0
 16 18  1  0  0  0  0
 18 19  2  0  0  0  0
 13 19  1  0  0  0  0
M  END
> <ID>
CPD_4427

$$$$
CPD_4432
  Mrv1822 09091914012D          

 23 25  0  0  0  0            999 V2000
    4.2868    1.6500    0.0000 O   0  0  0  0  0  0  0  0  0  0  0  0
    3.5724    1.2375    0.0000 As  0  0  0  0  0  0  0  0  0  0  0  0
    3.1599    1.9520    0.0000 O   0  0  0  0  0  0  0  0  0  0  0  0
    3.9849    0.5230    0.0000 O   0  0  0  0  0  0  0  0  0  0  0  0
    2.8579    0.8250    0.0000 C   0  0  0  0  0  0  0  0  0  0  0  0
    2.8579   -0.0000    0.0000 C   0  0  0  0  0  0  0  0  0  0  0  0
    2.1434   -0.4125    0.0000 C   0  0  0  0  0  0  0  0  0  0  0  0
    1.4289   -0.0000    0.0000 C   0  0  0  0  0  0  0  0  0  0  0  0
    0.7145   -0.4125    0.0000 N   0  0  0  0  0  0  0  0  0  0  0  0
    0.7145   -1.2375    0.0000 C   0  0  0  0  0  0  0  0  0  0  0  0
    1.3819   -1.7224    0.0000 C   0  0  0  0  0  0  0  0  0  0  0  0
    1.1270   -2.5070    0.0000 C   0  0  0  0  0  0  0  0  0  0  0  0
    0.3020   -2.5070    0.0000 N   0  0  0  0  0  0  0  0  0  0  0  0
    0.0470   -1.7224    0.0000 C   0  0  0  0  0  0  0  0  0  0  0  0
   -0.1830   -3.1745    0.0000 C   0  0  0  0  0  0  0  0  0  0  0  0
    0.1526   -3.9282    0.0000 C   0  0  0  0  0  0  0  0  0  0  0  0
   -0.3323   -4.5956    0.0000 C   0  0  0  0  0  0  0  0  0  0  0  0
   -1.1528   -4.5094    0.0000 C   0  0  0  0  0  0  0  0  0  0  0  0
   -1.6377   -5.1768    0.0000 Br  0  0  0  0  0  0  0  0  0  0  0  0
   -1.4884   -3.7557    0.0000 C   0  0  0  0  0  0  0  0  0  0  0  0
   -1.0034   -3.0882    0.0000 N   0  0  0  0  0  0  0  0  0  0  0  0
    1.4289    0.8250    0.0000 C   0  0  0  0  0  0  0  0  0  0  0  0
    2.1434    1.2375    0.0000 C   0  0  0  0  0  0  0  0  0  0  0  0
  1  2  1  0  0  0  0
  2  3  1  0  0  0  0
  2  4  2  0  0  0  0
  2  5  1  0  0  0  0
  5  6  2  0  0  0  0
  6  7  1  0  0  0  0
  7  8  2  0  0  0  0
  8  9  1  0  0  0  0
  9 10  1  0  0  0  0
 10 11  1  0  0  0  0
 11 12  1  0  0  0  0
 12 13  1  0  0  0  0
 13 14  1  0  0  0  0
 10 14  1  0  0  0  0
 13 15  1  0  0  0  0
 15 16  2  0  0  0  0
 16 17  1  0  0  0  0
 17 18  2  0  0  0  0
 18 19  1  0  0  0  0
 18 20  1  0  0  0  0
 20 21  2  0  0  0  0
 15 21  1  0  0  0  0
  8 22  1  0  0  0  0
 22 23  2  0  0  0  0
  5 23  1  0  0  0  0
M  END
> <ID>
CPD_4432

$$$$
CPD_4437
  Mrv1822 09091914012D          

 25 28  0  0  0  0            999 V2000
    1.3807    0.7379    0.0000 C   0  0  0  0  0  0  0  0  0  0  0  0
    1.3807   -0.0871    0.0000 C   0  0  0  0  0  0  0  0  0  0  0  0
    2.0952   -0.4996    0.0000 O   0  0  0  0  0  0  0  0  0  0  0  0
    0.6663   -0.4996    0.0000 C   0  0  0  0  0  0  0  0  0  0  0  0
    0.6663   -1.3246    0.0000 C   0  0  0  0  0  0  0  0  0  0  0  0
   -0.0482   -1.7371    0.0000 N   0  0  0  0  0  0  0  0  0  0  0  0
   -0.7627   -1.3246    0.0000 C   0  0  0  0  0  0  0  0  0  0  0  0
   -0.7627   -0.4996    0.0000 N   0  0  0  0  0  0  0  0  0  0  0  0
   -0.0482   -0.0871    0.0000 C   0  0  0  0  0  0  0  0  0  0  0  0
   -0.0482    0.7379    0.0000 C   0  0  0  0  0  0  0  0  0  0  0  0
   -1.4771   -1.7371    0.0000 N   0  0  0  0  0  0  0  0  0  0  0  0
   -1.4771   -2.5621    0.0000 C   0  0  0  0  0  0  0  0  0  0  0  0
   -1.0646   -3.2766    0.0000 C   0  0  0  0  0  0  0  0  0  0  0  0
   -1.8896   -3.2766    0.0000 C   0  0  0  0  0  0  0  0  0  0  0  0
   -2.1916   -1.3246    0.0000 C   0  0  0  0  0  0  0  0  0  0  0  0
   -2.9453   -1.6602    0.0000 N   0  0  0  0  0  0  0  0  0  0  0  0
   -3.4973   -1.0471    0.0000 C   0  0  0  0  0  0  0  0  0  0  0  0
   -3.0848   -0.3326    0.0000 N   0  0  0  0  0  0  0  0  0  0  0  0
   -2.2778   -0.5042    0.0000 N   0  0  0  0  0  0  0  0  0  0  0  0
   -4.3178   -1.1333    0.0000 C   0  0  0  0  0  0  0  0  0  0  0  0
   -4.6534   -1.8870    0.0000 C   0  0  0  0  0  0  0  0  0  0  0  0
   -5.4738   -1.9733    0.0000 C   0  0  0  0  0  0  0  0  0  0  0  0
   -5.9588   -1.3058    0.0000 C   0  0  0  0  0  0  0  0  0  0  0  0
   -5.6232   -0.5521    0.0000 N   0  0  0  0  0  0  0  0  0  0  0  0
   -4.8027   -0.4659    0.0000 C   0  0  0  0  0  0  0  0  0  0  0  0
  1  2  1  0  0  0  0
  2  3  2  0  0  0  0
  2  4  1  0  0  0  0
  4  5  2  0  0  0  0
  5  6  1  0  0  0  0
  6  7  2  0  0  0  0
  7  8  1  0  0  0  0
  8  9  2  0  0  0  0
  4  9  1  0  0  0  0
  9 10  1  0  0  0  0
  7 11  1  0  0  0  0
 11 12  1  0  0  0  0
 12 13  1  0  0  0  0
 13 14  1  0  0  0  0
 12 14  1  0  0  0  0
 11 15  1  0  0  0  0
 15 16  2  0  0  0  0
 16 17  1  0  0  0  0
 17 18  2  0  0  0  0
 18 19  1  0  0  0  0
 15 19  1  0  0  0  0
 17 20  1  0  0  0  0
 20 21  2  0  0  0  0
 21 22  1  0  0  0  0
 22 23  2  0  0  0  0
 23 24  1  0  0  0  0
 24 25  2  0  0  0  0
 20 25  1  0  0  0  0
M  END
> <ID>
CPD_4437

$$$$
CPD_4442
  Mrv1822 09091914012D          

 27 30  0  0  0  0            999 V2000
   -0.3020   -3.0584    0.0000 C   0  0  0  0  0  0  0  0  0  0  0  0
   -0.3020   -2.2334    0.0000 C   0  0  0  0  0  0  0  0  0  0  0  0
    0.5230   -2.2334    0.0000 C   0  0  0  0  0  0  0  0  0  0  0  0
   -1.1270   -2.2334    0.0000 C   0  0  0  0  0  0  0  0  0  0  0  0
   -0.3020   -1.4084    0.0000 O   0  0  0  0  0  0  0  0  0  0  0  0
    0.4125   -0.9959    0.0000 C   0  0  0  0  0  0  0  0  0  0  0  0
    1.1270   -1.4084    0.0000 O   0  0  0  0  0  0  0  0  0  0  0  0
    0.4125   -0.1709    0.0000 N   0  0  0  0  0  0  0  0  0  0  0  0
   -0.1709    0.4125    0.0000 C   0  0  0  0  0  0  0  0  0  0  0  0
    0.4125    0.9959    0.0000 C   0  0  0  0  0  0  0  0  0  0  0  0
    0.9959    0.4125    0.0000 C   0  0  0  0  0  0  0  0  0  0  0  0
    1.4084    1.1270    0.0000 C   0  0  0  0  0  0  0  0  0  0  0  0
    2.2334    1.1270    0.0000 C   0  0  0  0  0  0  0  0  0  0  0  0
    2.6459    0.4125    0.0000 N   0  0  0  0  0  0  0  0  0  0  0  0
    2.2334   -0.3020    0.0000 C   0  0  0  0  0  0  0  0  0  0  0  0
    1.4084   -0.3020    0.0000 C   0  0  0  0  0  0  0  0  0  0  0  0
    3.4709    0.4125    0.0000 C   0  0  0  0  0  0  0  0  0  0  0  0
    3.9558    1.0799    0.0000 N   0  0  0  0  0  0  0  0  0  0  0  0
    4.7404    0.8250    0.0000 C   0  0  0  0  0  0  0  0  0  0  0  0
    4.7404   -0.0000    0.0000 N   0  0  0  0  0  0  0  0  0  0  0  0
    3.9558   -0.2549    0.0000 N   0  0  0  0  0  0  0  0  0  0  0  0
    5.4078    1.3099    0.0000 C   0  0  0  0  0  0  0  0  0  0  0  0
    5.3216    2.1304    0.0000 C   0  0  0  0  0  0  0  0  0  0  0  0
    5.9890    2.6153    0.0000 C   0  0  0  0  0  0  0  0  0  0  0  0
    6.7427    2.2798    0.0000 C   0  0  0  0  0  0  0  0  0  0  0  0
    6.8290    1.4593    0.0000 N   0  0  0  0  0  0  0  0  0  0  0  0
    6.1615    0.9744    0.0000 C   0  0  0  0  0  0  0  0  0  0  0  0
  1  2  1  0  0  0  0
  2  3  1  0  0  0  0
  2  4  1  0  0  0  0
  2  5  1  0  0  0  0
  5  6  1  0  0  0  0
  6  7  2  0  0  0  0
  6  8  1  0  0  0  0
  8  9  1  0  0  0  0
  9 10  1  0  0  0  0
 10 11  1  0  0  0  0
  8 11  1  0  0  0  0
 11 12  1  0  0  0  0
 12 13  1  0  0  0  0
 13 14  1  0  0  0  0
 14 15  1  0  0  0  0
 15 16  1  0  0  0  0
 11 16  1  0  0  0  0
 14 17  1  0  0  0  0
 17 18  2  0  0  0  0
 18 19  1  0  0  0  0
 19 20  2  0  0  0  0
 20 21  1  0  0  0  0
 17 21  1  0  0  0  0
 19 22  1  0  0  0  0
 22 23  2  0  0  0  0
 23 24  1  0  0  0  0
 24 25  2  0  0  0  0
 25 26  1  0  0  0  0
 26 27  2  0  0  0  0
 22 27  1  0  0  0  0
M  END
> <ID>
CPD_4442

$$$$
CPD_4447
  Mrv1822 09091914012D          

 28 30  0  0  0  0            999 V2000
   -1.1143   -0.3881    0.0000 C   0  0  0  0  0  0  0  0  0  0  0  0
   -0.3998    0.0244    0.0000 C   0  0  0  0  0  0  0  0  0  0  0  0
    0.3539   -0.3111    0.0000 N   0  0  0  0  0  0  0  0  0  0  0  0
    0.9059    0.3020    0.0000 N   0  0  0  0  0  0  0  0  0  0  0  0
    0.4934    1.0164    0.0000 C   0  0  0  0  0  0  0  0  0  0  0  0
    0.9059    1.7309    0.0000 N   0  0  0  0  0  0  0  0  0  0  0  0
    1.7309    1.7309    0.0000 C   0  0  0  0  0  0  0  0  0  0  0  0
    2.1434    2.4454    0.0000 C   0  0  0  0  0  0  0  0  0  0  0  0
    2.1434    1.0164    0.0000 N   0  0  0  0  0  0  0  0  0  0  0  0
    1.7309    0.3020    0.0000 C   0  0  0  0  0  0  0  0  0  0  0  0
    2.1434   -0.4125    0.0000 O   0  0  0  0  0  0  0  0  0  0  0  0
    2.9684   -0.4125    0.0000 C   0  0  0  0  0  0  0  0  0  0  0  0
    3.3809    0.3020    0.0000 O   0  0  0  0  0  0  0  0  0  0  0  0
    3.3809   -1.1270    0.0000 C   0  0  0  0  0  0  0  0  0  0  0  0
    4.2059   -1.1270    0.0000 N   0  0  0  0  0  0  0  0  0  0  0  0
    4.6184   -1.8414    0.0000 C   0  0  0  0  0  0  0  0  0  0  0  0
    5.4434   -1.8414    0.0000 C   0  0  0  0  0  0  0  0  0  0  0  0
    5.8559   -2.5559    0.0000 C   0  0  0  0  0  0  0  0  0  0  0  0
    6.6809   -2.5559    0.0000 C   0  0  0  0  0  0  0  0  0  0  0  0
    5.4434   -3.2704    0.0000 C   0  0  0  0  0  0  0  0  0  0  0  0
    4.6184   -3.2704    0.0000 C   0  0  0  0  0  0  0  0  0  0  0  0
    4.2059   -2.5559    0.0000 C   0  0  0  0  0  0  0  0  0  0  0  0
    4.6184   -0.4125    0.0000 S   0  0  0  0  0  0  0  0  0  0  0  0
    5.3329   -0.8250    0.0000 C   0  0  0  0  0  0  0  0  0  0  0  0
    3.9039    0.0000    0.0000 O   0  0  0  0  0  0  0  0  0  0  0  0
    5.0309    0.3020    0.0000 O   0  0  0  0  0  0  0  0  0  0  0  0
   -0.3136    0.8449    0.0000 C   0  0  0  0  0  0  0  0  0  0  0  0
   -0.9267    1.3969    0.0000 Br  0  0  0  0  0  0  0  0  0  0  0  0
  1  2  1  0  0  0  0
  2  3  2  0  0  0  0
  3  4  1  0  0  0  0
  4  5  1  0  0  0  0
  5  6  1  0  0  0  0
  6  7  2  0  0  0  0
  7  8  1  0  0  0  0
  7  9  1  0  0  0  0
  9 10  2  0  0  0  0
  4 10  1  0  0  0  0
 10 11  1  0  0  0  0
 11 12  1  0  0  0  0
 12 13  2  0  0  0  0
 12 14  1  0  0  0  0
 14 15  1  0  0  0  0
 15 16  1  0  0  0  0
 16 17  2  0  0  0  0
 17 18  1  0  0  0  0
 18 19  1  0  0  0  0
 18 20  2  0  0  0  0
 20 21  1  0  0  0  0
 21 22  2  0  0  0  0
 16 22  1  0  0  0  0
 15 23  1  0  0  0  0
 23 24  1  0  0  0  0
 23 25  2  0  0  0  0
 23 26  2  0  0  0  0
  5 27  2  0  0  0  0
  2 27  1  0  0  0  0
 27 28  1  0  0  0  0
M  END
> <ID>
CPD_4447

$$$$
CPD_4452
  Mrv1822 09091914012D          

 22 24  0  0  0  0            999 V2000
   -1.4534   -0.6979    0.0000 C   0  0  0  0  0  0  0  0  0  0  0  0
   -0.6284   -0.6979    0.0000 C   0  0  0  0  0  0  0  0  0  0  0  0
   -0.1435   -1.3654    0.0000 N   0  0  0  0  0  0  0  0  0  0  0  0
    0.6411   -1.1104    0.0000 N   0  0  0  0  0  0  0  0  0  0  0  0
    0.6411   -0.2854    0.0000 C   0  0  0  0  0  0  0  0  0  0  0  0
    1.3556    0.1271    0.0000 N   0  0  0  0  0  0  0  0  0  0  0  0
    2.0701   -0.2854    0.0000 C   0  0  0  0  0  0  0  0  0  0  0  0
    2.7845    0.1271    0.0000 C   0  0  0  0  0  0  0  0  0  0  0  0
    2.0701   -1.1104    0.0000 N   0  0  0  0  0  0  0  0  0  0  0  0
    1.3556   -1.5229    0.0000 C   0  0  0  0  0  0  0  0  0  0  0  0
    1.3556   -2.3479    0.0000 N   0  0  0  0  0  0  0  0  0  0  0  0
    0.6411   -2.7604    0.0000 C   0  0  0  0  0  0  0  0  0  0  0  0
   -0.0734   -2.3479    0.0000 C   0  0  0  0  0  0  0  0  0  0  0  0
   -0.7878   -2.7604    0.0000 C   0  0  0  0  0  0  0  0  0  0  0  0
   -0.7878   -3.5854    0.0000 C   0  0  0  0  0  0  0  0  0  0  0  0
   -1.5023   -3.9979    0.0000 F   0  0  0  0  0  0  0  0  0  0  0  0
   -0.0734   -3.9979    0.0000 C   0  0  0  0  0  0  0  0  0  0  0  0
   -0.0734   -4.8229    0.0000 C   0  0  0  0  0  0  0  0  0  0  0  0
    0.6411   -3.5854    0.0000 C   0  0  0  0  0  0  0  0  0  0  0  0
    1.3556   -3.9979    0.0000 F   0  0  0  0  0  0  0  0  0  0  0  0
   -0.1435   -0.0305    0.0000 C   0  0  0  0  0  0  0  0  0  0  0  0
   -0.3984    0.7541    0.0000 Br  0  0  0  0  0  0  0  0  0  0  0  0
  1  2  1  0  0  0  0
  2  3  2  0  0  0  0
  3  4  1  0  0  0  0
  4  5  1  0  0  0  0
  5  6  1  0  0  0  0
  6  7  2  0  0  0  0
  7  8  1  0  0  0  0
  7  9  1  0  0  0  0
  9 10  2  0  0  0  0
  4 10  1  0  0  0  0
 10 11  1  0  0  0  0
 11 12  1  0  0  0  0
 12 13  2  0  0  0  0
 13 14  1  0  0  0  0
 14 15  2  0  0  0  0
 15 16  1  0  0  0  0
 15 17  1  0  0  0  0
 17 18  1  0  0  0  0
 17 19  2  0  0  0  0
 12 19  1  0  0  0  0
 19 20  1  0  0  0  0
  5 21  2  0  0  0  0
  2 21  1  0  0  0  0
 21 22  1  0  0  0  0
M  END
> <ID>
CPD_4452

$$$$
CPD_4457
  Mrv1822 09091914012D          

 28 30  0  0  0  0            999 V2000
    1.1355    3.3000    0.0000 C   0  0  0  0  0  0  0  0  0  0  0  0
    1.8500    3.7125    0.0000 N   0  0  0  0  0  0  0  0  0  0  0  0
    2.5645    3.3000    0.0000 C   0  0  0  0  0  0  0  0  0  0  0  0
    2.5645    2.4750    0.0000 C   0  0  0  0  0  0  0  0  0  0  0  0
    1.8500    2.0625    0.0000 O   0  0  0  0  0  0  0  0  0  0  0  0
    3.2789    2.0625    0.0000 O   0  0  0  0  0  0  0  0  0  0  0  0
    3.2789    1.2375    0.0000 C   0  0  0  0  0  0  0  0  0  0  0  0
    3.9934    0.8250    0.0000 N   0  0  0  0  0  0  0  0  0  0  0  0
    3.9934    0.0000    0.0000 C   0  0  0  0  0  0  0  0  0  0  0  0
    4.7079   -0.4125    0.0000 C   0  0  0  0  0  0  0  0  0  0  0  0
    3.2789   -0.4125    0.0000 N   0  0  0  0  0  0  0  0  0  0  0  0
    2.5645    0.0000    0.0000 C   0  0  0  0  0  0  0  0  0  0  0  0
    1.7798   -0.2549    0.0000 C   0  0  0  0  0  0  0  0  0  0  0  0
    1.5249   -1.0396    0.0000 Br  0  0  0  0  0  0  0  0  0  0  0  0
    1.2949    0.4125    0.0000 C   0  0  0  0  0  0  0  0  0  0  0  0
    0.4699    0.4125    0.0000 C   0  0  0  0  0  0  0  0  0  0  0  0
    1.7798    1.0799    0.0000 N   0  0  0  0  0  0  0  0  0  0  0  0
    2.5645    0.8250    0.0000 N   0  0  0  0  0  0  0  0  0  0  0  0
    1.8500    4.5375    0.0000 S   0  0  0  0  0  0  0  0  0  0  0  0
    2.6750    4.5375    0.0000 O   0  0  0  0  0  0  0  0  0  0  0  0
    1.0250    4.5375    0.0000 O   0  0  0  0  0  0  0  0  0  0  0  0
    1.8500    5.3625    0.0000 C   0  0  0  0  0  0  0  0  0  0  0  0
    1.1355    5.7750    0.0000 C   0  0  0  0  0  0  0  0  0  0  0  0
    1.1355    6.6000    0.0000 C   0  0  0  0  0  0  0  0  0  0  0  0
    1.8500    7.0125    0.0000 C   0  0  0  0  0  0  0  0  0  0  0  0
    1.8500    7.8375    0.0000 Br  0  0  0  0  0  0  0  0  0  0  0  0
    2.5645    6.6000    0.0000 C   0  0  0  0  0  0  0  0  0  0  0  0
    2.5645    5.7750    0.0000 C   0  0  0  0  0  0  0  0  0  0  0  0
  1  2  1  0  0  0  0
  2  3  1  0  0  0  0
  3  4  1  0  0  0  0
  4  5  2  0  0  0  0
  4  6  1  0  0  0  0
  6  7  1  0  0  0  0
  7  8  2  0  0  0  0
  8  9  1  0  0  0  0
  9 10  1  0  0  0  0
  9 11  2  0  0  0  0
 11 12  1  0  0  0  0
 12 13  2  0  0  0  0
 13 14  1  0  0  0  0
 13 15  1  0  0  0  0
 15 16  1  0  0  0  0
 15 17  2  0  0  0  0
 17 18  1  0  0  0  0
  7 18  1  0  0  0  0
 12 18  1  0  0  0  0
  2 19  1  0  0  0  0
 19 20  2  0  0  0  0
 19 21  2  0  0  0  0
 19 22  1  0  0  0  0
 22 23  2  0  0  0  0
 23 24  1  0  0  0  0
 24 25  2  0  0  0  0
 25 26  1  0  0  0  0
 25 27  1  0  0  0  0
 27 28  2  0  0  0  0
 22 28  1  0  0  0  0
M  END
> <ID>
CPD_4457

$$$$
CPD_4462
  Mrv1822 09091914012D          

 25 26  0  0  1  0            999 V2000
    2.0367   -1.2991    0.0000 C   0  0  0  0  0  0  0  0  0  0  0  0
    2.0367   -2.1241    0.0000 C   0  0  2  0  0  0  0  0  0  0  0  0
    2.7041   -2.6090    0.0000 N   0  0  0  0  0  0  0  0  0  0  0  0
    3.4888   -2.3541    0.0000 C   0  0  0  0  0  0  0  0  0  0  0  0
    3.6603   -1.5471    0.0000 O   0  0  0  0  0  0  0  0  0  0  0  0
    4.1019   -2.9061    0.0000 O   0  0  0  0  0  0  0  0  0  0  0  0
    4.8865   -2.6512    0.0000 C   0  0  0  0  0  0  0  0  0  0  0  0
    5.6711   -2.3962    0.0000 C   0  0  0  0  0  0  0  0  0  0  0  0
    4.6315   -1.8666    0.0000 C   0  0  0  0  0  0  0  0  0  0  0  0
    5.1414   -3.4358    0.0000 C   0  0  0  0  0  0  0  0  0  0  0  0
    2.4492   -3.3937    0.0000 C   0  0  0  0  0  0  0  0  0  0  0  0
    2.9341   -4.0611    0.0000 O   0  0  0  0  0  0  0  0  0  0  0  0
    1.6242   -3.3937    0.0000 C   0  0  0  0  0  0  0  0  0  0  0  0
    1.3693   -2.6090    0.0000 C   0  0  0  0  0  0  0  0  0  0  0  0
    0.5846   -2.3541    0.0000 N   0  0  0  0  0  0  0  0  0  0  0  0
    0.4131   -1.5471    0.0000 S   0  0  0  0  0  0  0  0  0  0  0  0
    1.2201   -1.3756    0.0000 O   0  0  0  0  0  0  0  0  0  0  0  0
   -0.3939   -1.7186    0.0000 O   0  0  0  0  0  0  0  0  0  0  0  0
    0.2416   -0.7401    0.0000 C   0  0  0  0  0  0  0  0  0  0  0  0
   -0.5430   -0.4852    0.0000 C   0  0  0  0  0  0  0  0  0  0  0  0
   -0.7146    0.3218    0.0000 C   0  0  0  0  0  0  0  0  0  0  0  0
   -0.1015    0.8738    0.0000 C   0  0  0  0  0  0  0  0  0  0  0  0
   -0.2730    1.6808    0.0000 N   0  0  0  0  0  0  0  0  0  0  0  0
    0.6832    0.6189    0.0000 N   0  0  0  0  0  0  0  0  0  0  0  0
    0.8547   -0.1881    0.0000 C   0  0  0  0  0  0  0  0  0  0  0  0
  2  1  1  6  0  0  0
  2  3  1  0  0  0  0
  3  4  1  0  0  0  0
  4  5  2  0  0  0  0
  4  6  1  0  0  0  0
  6  7  1  0  0  0  0
  7  8  1  0  0  0  0
  7  9  1  0  0  0  0
  7 10  1  0  0  0  0
  3 11  1  0  0  0  0
 11 12  2  0  0  0  0
 11 13  1  0  0  0  0
 13 14  2  0  0  0  0
  2 14  1  0  0  0  0
 14 15  1  0  0  0  0
 15 16  1  0  0  0  0
 16 17  2  0  0  0  0
 16 18  2  0  0  0  0
 16 19  1  0  0  0  0
 19 20  2  0  0  0  0
 20 21  1  0  0  0  0
 21 22  2  0  0  0  0
 22 23  1  0  0  0  0
 22 24  1  0  0  0  0
 24 25  2  0  0  0  0
 19 25  1  0  0  0  0
M  END
> <ID>
CPD_4462

$$$$
CPD_4467
  Mrv1822 09091914012D          

 26 27  0  0  1  0            999 V2000
    0.8212    8.4777    0.0000 C   0  0  0  0  0  0  0  0  0  0  0  0
    0.1067    8.0652    0.0000 O   0  0  0  0  0  0  0  0  0  0  0  0
    0.1067    7.2402    0.0000 C   0  0  0  0  0  0  0  0  0  0  0  0
    0.8212    6.8277    0.0000 O   0  0  0  0  0  0  0  0  0  0  0  0
   -0.6078    6.8277    0.0000 C   0  0  0  0  0  0  0  0  0  0  0  0
   -0.6078    6.0027    0.0000 C   0  0  0  0  0  0  0  0  0  0  0  0
   -1.3222    5.5902    0.0000 C   0  0  0  0  0  0  0  0  0  0  0  0
   -1.3222    4.7652    0.0000 C   0  0  0  0  0  0  0  0  0  0  0  0
   -2.0367    4.3527    0.0000 O   0  0  0  0  0  0  0  0  0  0  0  0
   -2.0367    3.5277    0.0000 C   0  0  0  0  0  0  0  0  0  0  0  0
   -1.3693    3.0428    0.0000 C   0  0  0  0  0  0  0  0  0  0  0  0
   -1.6242    2.2581    0.0000 C   0  0  0  0  0  0  0  0  0  0  0  0
   -1.1393    1.5907    0.0000 O   0  0  0  0  0  0  0  0  0  0  0  0
   -2.4492    2.2581    0.0000 N   0  0  0  0  0  0  0  0  0  0  0  0
   -2.7041    3.0428    0.0000 C   0  0  1  0  0  0  0  0  0  0  0  0
   -3.4888    3.2977    0.0000 C   0  0  0  0  0  0  0  0  0  0  0  0
   -2.9341    1.5907    0.0000 C   0  0  0  0  0  0  0  0  0  0  0  0
   -2.5986    0.8370    0.0000 O   0  0  0  0  0  0  0  0  0  0  0  0
   -3.7546    1.6769    0.0000 O   0  0  0  0  0  0  0  0  0  0  0  0
   -4.2395    1.0095    0.0000 C   0  0  0  0  0  0  0  0  0  0  0  0
   -4.7245    0.3421    0.0000 C   0  0  0  0  0  0  0  0  0  0  0  0
   -4.9070    1.4944    0.0000 C   0  0  0  0  0  0  0  0  0  0  0  0
   -3.5721    0.5246    0.0000 C   0  0  0  0  0  0  0  0  0  0  0  0
   -2.0367    6.0027    0.0000 N   0  0  0  0  0  0  0  0  0  0  0  0
   -2.0367    6.8277    0.0000 C   0  0  0  0  0  0  0  0  0  0  0  0
   -1.3222    7.2402    0.0000 C   0  0  0  0  0  0  0  0  0  0  0  0
  1  2  1  0  0  0  0
  2  3  1  0  0  0  0
  3  4  2  0  0  0  0
  3  5  1  0  0  0  0
  5  6  2  0  0  0  0
  6  7  1  0  0  0  0
  7  8  1  0  0  0  0
  8  9  1  0  0  0  0
  9 10  1  0  0  0  0
 10 11  2  0  0  0  0
 11 12  1  0  0  0  0
 12 13  2  0  0  0  0
 12 14  1  0  0  0  0
 15 14  1  0  0  0  0
 15 10  1  0  0  0  0
 15 16  1  1  0  0  0
 14 17  1  0  0  0  0
 17 18  2  0  0  0  0
 17 19  1  0  0  0  0
 19 20  1  0  0  0  0
 20 21  1  0  0  0  0
 20 22  1  0  0  0  0
 20 23  1  0  0  0  0
  7 24  2  0  0  0  0
 24 25  1  0  0  0  0
 25 26  2  0  0  0  0
  5 26  1  0  0  0  0
M  END
> <ID>
CPD_4467

$$$$
CPD_4472
  Mrv1822 09091914012D          

 23 25  0  0  0  0            999 V2000
   -2.1434   -1.2375    0.0000 C   0  0  0  0  0  0  0  0  0  0  0  0
   -1.4289   -1.6500    0.0000 S   0  0  0  0  0  0  0  0  0  0  0  0
   -0.7145   -1.2375    0.0000 C   0  0  0  0  0  0  0  0  0  0  0  0
    0.0000   -1.6500    0.0000 N   0  0  0  0  0  0  0  0  0  0  0  0
    0.7145   -1.2375    0.0000 C   0  0  0  0  0  0  0  0  0  0  0  0
    0.7145   -0.4125    0.0000 C   0  0  0  0  0  0  0  0  0  0  0  0
    0.0000   -0.0000    0.0000 C   0  0  0  0  0  0  0  0  0  0  0  0
   -0.7145   -0.4125    0.0000 N   0  0  0  0  0  0  0  0  0  0  0  0
    1.4289   -0.0000    0.0000 C   0  0  0  0  0  0  0  0  0  0  0  0
    2.1434   -0.4125    0.0000 C   0  0  0  0  0  0  0  0  0  0  0  0
    2.1434   -1.2375    0.0000 C   0  0  0  0  0  0  0  0  0  0  0  0
    1.4289   -1.6500    0.0000 C   0  0  0  0  0  0  0  0  0  0  0  0
    2.8579   -0.0000    0.0000 N   0  0  0  0  0  0  0  0  0  0  0  0
    3.5724   -0.4125    0.0000 C   0  0  0  0  0  0  0  0  0  0  0  0
    2.8579    0.8250    0.0000 C   0  0  0  0  0  0  0  0  0  0  0  0
    3.5724    1.2375    0.0000 C   0  0  0  0  0  0  0  0  0  0  0  0
    3.6586    2.0580    0.0000 N   0  0  0  0  0  0  0  0  0  0  0  0
    4.4656    2.2295    0.0000 N   0  0  0  0  0  0  0  0  0  0  0  0
    4.8781    1.5150    0.0000 C   0  0  0  0  0  0  0  0  0  0  0  0
    4.3260    0.9019    0.0000 C   0  0  0  0  0  0  0  0  0  0  0  0
    4.8011    2.9832    0.0000 C   0  0  0  0  0  0  0  0  0  0  0  0
    4.3162    3.6506    0.0000 C   0  0  0  0  0  0  0  0  0  0  0  0
    5.6216    3.0694    0.0000 C   0  0  0  0  0  0  0  0  0  0  0  0
  1  2  1  0  0  0  0
  2  3  1  0  0  0  0
  3  4  2  0  0  0  0
  4  5  1  0  0  0  0
  5  6  2  0  0  0  0
  6  7  1  0  0  0  0
  7  8  2  0  0  0  0
  3  8  1  0  0  0  0
  6  9  1  0  0  0  0
  9 10  2  0  0  0  0
 10 11  1  0  0  0  0
 11 12  2  0  0  0  0
  5 12  1  0  0  0  0
 10 13  1  0  0  0  0
 13 14  1  0  0  0  0
 13 15  1  0  0  0  0
 15 16  1  0  0  0  0
 16 17  2  0  0  0  0
 17 18  1  0  0  0  0
 18 19  1  0  0  0  0
 19 20  2  0  0  0  0
 16 20  1  0  0  0  0
 18 21  1  0  0  0  0
 21 22  1  0  0  0  0
 21 23  1  0  0  0  0
M  END
> <ID>
CPD_4472

$$$$
CPD_4477
  Mrv1822 09091914012D          

 23 25  0  0  0  0            999 V2000
   -0.7145    1.2375    0.0000 C   0  0  0  0  0  0  0  0  0  0  0  0
   -1.4289    0.8250    0.0000 C   0  0  0  0  0  0  0  0  0  0  0  0
   -1.4289    0.0000    0.0000 N   0  0  0  0  0  0  0  0  0  0  0  0
   -2.1434   -0.4125    0.0000 C   0  0  0  0  0  0  0  0  0  0  0  0
   -2.1434   -1.2375    0.0000 C   0  0  0  0  0  0  0  0  0  0  0  0
   -1.4289   -1.6500    0.0000 O   0  0  0  0  0  0  0  0  0  0  0  0
   -0.7145   -1.2375    0.0000 C   0  0  0  0  0  0  0  0  0  0  0  0
    0.0000   -1.6500    0.0000 C   0  0  0  0  0  0  0  0  0  0  0  0
    0.7145   -1.2375    0.0000 C   0  0  0  0  0  0  0  0  0  0  0  0
    0.7145   -0.4125    0.0000 C   0  0  0  0  0  0  0  0  0  0  0  0
    0.0000   -0.0000    0.0000 C   0  0  0  0  0  0  0  0  0  0  0  0
   -0.7145   -0.4125    0.0000 C   0  0  0  0  0  0  0  0  0  0  0  0
    1.4289   -0.0000    0.0000 N   0  0  0  0  0  0  0  0  0  0  0  0
    2.1434   -0.4125    0.0000 C   0  0  0  0  0  0  0  0  0  0  0  0
    2.8579   -0.0000    0.0000 S   0  0  0  0  0  0  0  0  0  0  0  0
    2.8579    0.8250    0.0000 C   0  0  0  0  0  0  0  0  0  0  0  0
    2.1434   -1.2375    0.0000 N   0  0  0  0  0  0  0  0  0  0  0  0
    1.4289   -1.6500    0.0000 C   0  0  0  0  0  0  0  0  0  0  0  0
   -2.8579   -1.6500    0.0000 C   0  0  0  0  0  0  0  0  0  0  0  0
   -3.5724   -1.2375    0.0000 C   0  0  0  0  0  0  0  0  0  0  0  0
   -3.5724   -0.4125    0.0000 C   0  0  0  0  0  0  0  0  0  0  0  0
   -4.2868    0.0000    0.0000 C   0  0  0  0  0  0  0  0  0  0  0  0
   -2.8579    0.0000    0.0000 C   0  0  0  0  0  0  0  0  0  0  0  0
  1  2  1  0  0  0  0
  2  3  1  0  0  0  0
  3  4  1  0  0  0  0
  4  5  2  0  0  0  0
  5  6  1  0  0  0  0
  6  7  1  0  0  0  0
  7  8  2  0  0  0  0
  8  9  1  0  0  0  0
  9 10  2  0  0  0  0
 10 11  1  0  0  0  0
 11 12  2  0  0  0  0
  7 12  1  0  0  0  0
 10 13  1  0  0  0  0
 13 14  2  0  0  0  0
 14 15  1  0  0  0  0
 15 16  1  0  0  0  0
 14 17  1  0  0  0  0
 17 18  2  0  0  0  0
  9 18  1  0  0  0  0
  5 19  1  0  0  0  0
 19 20  2  0  0  0  0
 20 21  1  0  0  0  0
 21 22  1  0  0  0  0
 21 23  2  0  0  0  0
  4 23  1  0  0  0  0
M  END
> <ID>
CPD_4477

$$$$
CPD_4482
  Mrv1822 09091914012D          

 22 25  0  0  0  0            999 V2000
   -0.2251    7.9679    0.0000 N   0  0  0  0  0  0  0  0  0  0  0  0
    0.0299    7.1833    0.0000 C   0  0  0  0  0  0  0  0  0  0  0  0
   -0.5221    6.5702    0.0000 C   0  0  0  0  0  0  0  0  0  0  0  0
   -0.2672    5.7856    0.0000 C   0  0  0  0  0  0  0  0  0  0  0  0
    0.5398    5.6141    0.0000 C   0  0  0  0  0  0  0  0  0  0  0  0
    1.0918    6.2272    0.0000 O   0  0  0  0  0  0  0  0  0  0  0  0
    0.8369    7.0118    0.0000 C   0  0  0  0  0  0  0  0  0  0  0  0
    1.3889    7.6249    0.0000 O   0  0  0  0  0  0  0  0  0  0  0  0
    0.7947    4.8294    0.0000 C   0  0  0  0  0  0  0  0  0  0  0  0
    0.2427    4.2163    0.0000 C   0  0  0  0  0  0  0  0  0  0  0  0
   -0.5643    4.3879    0.0000 C   0  0  0  0  0  0  0  0  0  0  0  0
   -0.8192    5.1725    0.0000 C   0  0  0  0  0  0  0  0  0  0  0  0
    0.4976    3.4317    0.0000 N   0  0  0  0  0  0  0  0  0  0  0  0
    0.0127    2.7643    0.0000 N   0  0  0  0  0  0  0  0  0  0  0  0
    0.4976    2.0968    0.0000 N   0  0  0  0  0  0  0  0  0  0  0  0
    1.2822    2.3518    0.0000 C   0  0  0  0  0  0  0  0  0  0  0  0
    1.2822    3.1768    0.0000 C   0  0  0  0  0  0  0  0  0  0  0  0
    1.9967    3.5893    0.0000 N   0  0  0  0  0  0  0  0  0  0  0  0
    2.7112    3.1768    0.0000 C   0  0  0  0  0  0  0  0  0  0  0  0
    2.7112    2.3518    0.0000 C   0  0  0  0  0  0  0  0  0  0  0  0
    3.4256    1.9393    0.0000 Br  0  0  0  0  0  0  0  0  0  0  0  0
    1.9967    1.9393    0.0000 C   0  0  0  0  0  0  0  0  0  0  0  0
  1  2  1  0  0  0  0
  2  3  2  0  0  0  0
  3  4  1  0  0  0  0
  4  5  2  0  0  0  0
  5  6  1  0  0  0  0
  6  7  1  0  0  0  0
  2  7  1  0  0  0  0
  7  8  2  0  0  0  0
  5  9  1  0  0  0  0
  9 10  2  0  0  0  0
 10 11  1  0  0  0  0
 11 12  2  0  0  0  0
  4 12  1  0  0  0  0
 10 13  1  0  0  0  0
 13 14  1  0  0  0  0
 14 15  2  0  0  0  0
 15 16  1  0  0  0  0
 16 17  2  0  0  0  0
 13 17  1  0  0  0  0
 17 18  1  0  0  0  0
 18 19  2  0  0  0  0
 19 20  1  0  0  0  0
 20 21  1  0  0  0  0
 20 22  2  0  0  0  0
 16 22  1  0  0  0  0
M  END
> <ID>
CPD_4482

$$$$
CPD_4487
  Mrv1822 09091914012D          

 22 23  0  0  1  0            999 V2000
   -2.8579   -4.9500    0.0000 C   0  0  0  0  0  0  0  0  0  0  0  0
   -2.1434   -4.5375    0.0000 C   0  0  0  0  0  0  0  0  0  0  0  0
   -2.1434   -3.7125    0.0000 C   0  0  0  0  0  0  0  0  0  0  0  0
   -1.4289   -4.9500    0.0000 C   0  0  0  0  0  0  0  0  0  0  0  0
   -0.7145   -4.5375    0.0000 C   0  0  2  0  0  0  0  0  0  0  0  0
   -0.7145   -3.7125    0.0000 N   0  0  0  0  0  0  0  0  0  0  0  0
    0.0000   -4.9500    0.0000 C   0  0  0  0  0  0  0  0  0  0  0  0
    0.7145   -4.5375    0.0000 C   0  0  0  0  0  0  0  0  0  0  0  0
    0.7145   -3.7125    0.0000 O   0  0  0  0  0  0  0  0  0  0  0  0
    1.4289   -4.9500    0.0000 O   0  0  0  0  0  0  0  0  0  0  0  0
    2.1434   -4.5375    0.0000 C   0  0  0  0  0  0  0  0  0  0  0  0
    2.8579   -4.9500    0.0000 C   0  0  0  0  0  0  0  0  0  0  0  0
    3.5724   -4.5375    0.0000 C   0  0  0  0  0  0  0  0  0  0  0  0
    3.5724   -3.7125    0.0000 C   0  0  0  0  0  0  0  0  0  0  0  0
    2.8579   -3.3000    0.0000 C   0  0  0  0  0  0  0  0  0  0  0  0
    2.1434   -3.7125    0.0000 C   0  0  0  0  0  0  0  0  0  0  0  0
    4.2868   -3.3000    0.0000 C   0  0  0  0  0  0  0  0  0  0  0  0
    5.0013   -3.7125    0.0000 C   0  0  0  0  0  0  0  0  0  0  0  0
    5.7158   -3.3000    0.0000 N   0  0  0  0  0  0  0  0  0  0  0  0
    5.0013   -4.5375    0.0000 C   0  0  0  0  0  0  0  0  0  0  0  0
    5.7158   -4.9500    0.0000 O   0  0  0  0  0  0  0  0  0  0  0  0
    4.2868   -4.9500    0.0000 O   0  0  0  0  0  0  0  0  0  0  0  0
  1  2  1  0  0  0  0
  2  3  1  0  0  0  0
  2  4  1  0  0  0  0
  5  4  1  0  0  0  0
  5  6  1  6  0  0  0
  5  7  1  0  0  0  0
  7  8  1  0  0  0  0
  8  9  2  0  0  0  0
  8 10  1  0  0  0  0
 10 11  1  0  0  0  0
 11 12  2  0  0  0  0
 12 13  1  0  0  0  0
 13 14  2  0  0  0  0
 14 15  1  0  0  0  0
 15 16  2  0  0  0  0
 11 16  1  0  0  0  0
 14 17  1  0  0  0  0
 17 18  2  0  0  0  0
 18 19  1  0  0  0  0
 18 20  1  0  0  0  0
 20 21  2  0  0  0  0
 20 22  1  0  0  0  0
 13 22  1  0  0  0  0
M  END
> <ID>
CPD_4487

$$$$
CPD_4492
  Mrv1822 09091914012D          

 30 33  0  0  0  0            999 V2000
   -3.5724   -3.7125    0.0000 N   0  0  0  0  0  0  0  0  0  0  0  0
   -3.5724   -2.8875    0.0000 C   0  0  0  0  0  0  0  0  0  0  0  0
   -4.2868   -2.4750    0.0000 C   0  0  0  0  0  0  0  0  0  0  0  0
   -4.2868   -1.6500    0.0000 C   0  0  0  0  0  0  0  0  0  0  0  0
   -3.5724   -1.2375    0.0000 C   0  0  0  0  0  0  0  0  0  0  0  0
   -3.5724   -0.4125    0.0000 S   0  0  0  0  0  0  0  0  0  0  0  0
   -4.2868    0.0000    0.0000 C   0  0  0  0  0  0  0  0  0  0  0  0
   -5.0013   -0.4125    0.0000 C   0  0  0  0  0  0  0  0  0  0  0  0
   -5.7158    0.0000    0.0000 C   0  0  0  0  0  0  0  0  0  0  0  0
   -5.7158    0.8250    0.0000 C   0  0  0  0  0  0  0  0  0  0  0  0
   -6.4302    1.2375    0.0000 Cl  0  0  0  0  0  0  0  0  0  0  0  0
   -5.0013    1.2375    0.0000 C   0  0  0  0  0  0  0  0  0  0  0  0
   -4.2868    0.8250    0.0000 C   0  0  0  0  0  0  0  0  0  0  0  0
   -2.8579   -1.6500    0.0000 C   0  0  0  0  0  0  0  0  0  0  0  0
   -2.8579   -2.4750    0.0000 C   0  0  0  0  0  0  0  0  0  0  0  0
   -2.1434   -1.2375    0.0000 C   0  0  0  0  0  0  0  0  0  0  0  0
   -2.1434   -0.4125    0.0000 O   0  0  0  0  0  0  0  0  0  0  0  0
   -1.4289   -1.6500    0.0000 O   0  0  0  0  0  0  0  0  0  0  0  0
   -0.7145   -1.2375    0.0000 C   0  0  0  0  0  0  0  0  0  0  0  0
    0.0000   -1.6500    0.0000 C   0  0  0  0  0  0  0  0  0  0  0  0
    0.7145   -1.2375    0.0000 C   0  0  0  0  0  0  0  0  0  0  0  0
    0.7145   -0.4125    0.0000 C   0  0  0  0  0  0  0  0  0  0  0  0
    0.0000   -0.0000    0.0000 C   0  0  0  0  0  0  0  0  0  0  0  0
   -0.7145   -0.4125    0.0000 C   0  0  0  0  0  0  0  0  0  0  0  0
    1.4289   -0.0000    0.0000 C   0  0  0  0  0  0  0  0  0  0  0  0
    2.1434   -0.4125    0.0000 C   0  0  0  0  0  0  0  0  0  0  0  0
    2.8579   -0.0000    0.0000 N   0  0  0  0  0  0  0  0  0  0  0  0
    2.1434   -1.2375    0.0000 C   0  0  0  0  0  0  0  0  0  0  0  0
    2.8579   -1.6500    0.0000 O   0  0  0  0  0  0  0  0  0  0  0  0
    1.4289   -1.6500    0.0000 O   0  0  0  0  0  0  0  0  0  0  0  0
  1  2  1  0  0  0  0
  2  3  2  0  0  0  0
  3  4  1  0  0  0  0
  4  5  2  0  0  0  0
  5  6  1  0  0  0  0
  6  7  1  0  0  0  0
  7  8  2  0  0  0  0
  8  9  1  0  0  0  0
  9 10  2  0  0  0  0
 10 11  1  0  0  0  0
 10 12  1  0  0  0  0
 12 13  2  0  0  0  0
  7 13  1  0  0  0  0
  5 14  1  0  0  0  0
 14 15  2  0  0  0  0
  2 15  1  0  0  0  0
 14 16  1  0  0  0  0
 16 17  2  0  0  0  0
 16 18  1  0  0  0  0
 18 19  1  0  0  0  0
 19 20  2  0  0  0  0
 20 21  1  0  0  0  0
 21 22  2  0  0  0  0
 22 23  1  0  0  0  0
 23 24  2  0  0  0  0
 19 24  1  0  0  0  0
 22 25  1  0  0  0  0
 25 26  2  0  0  0  0
 26 27  1  0  0  0  0
 26 28  1  0  0  0  0
 28 29  2  0  0  0  0
 28 30  1  0  0  0  0
 21 30  1  0  0  0  0
M  END
> <ID>
CPD_4492

$$$$
CPD_4497
  Mrv1822 09091914012D          

 28 29  0  0  0  0            999 V2000
   -0.7145   -7.0125    0.0000 C   0  0  0  0  0  0  0  0  0  0  0  0
   -0.7145   -6.1875    0.0000 C   0  0  0  0  0  0  0  0  0  0  0  0
    0.0000   -5.7750    0.0000 O   0  0  0  0  0  0  0  0  0  0  0  0
    0.0000   -4.9500    0.0000 C   0  0  0  0  0  0  0  0  0  0  0  0
   -0.7145   -4.5375    0.0000 C   0  0  0  0  0  0  0  0  0  0  0  0
   -0.7145   -3.7125    0.0000 C   0  0  0  0  0  0  0  0  0  0  0  0
   -1.4289   -3.3000    0.0000 Br  0  0  0  0  0  0  0  0  0  0  0  0
    0.0000   -3.3000    0.0000 C   0  0  0  0  0  0  0  0  0  0  0  0
    0.0000   -2.4750    0.0000 Br  0  0  0  0  0  0  0  0  0  0  0  0
    0.7145   -3.7125    0.0000 C   0  0  0  0  0  0  0  0  0  0  0  0
    1.4289   -3.3000    0.0000 C   0  0  0  0  0  0  0  0  0  0  0  0
    1.4289   -2.4750    0.0000 N   0  0  0  0  0  0  0  0  0  0  0  0
    2.1434   -2.0625    0.0000 C   0  0  0  0  0  0  0  0  0  0  0  0
    2.1434   -1.2375    0.0000 C   0  0  0  0  0  0  0  0  0  0  0  0
    2.8579   -0.8250    0.0000 C   0  0  0  0  0  0  0  0  0  0  0  0
    2.8579    0.0000    0.0000 C   0  0  0  0  0  0  0  0  0  0  0  0
    2.1434    0.4125    0.0000 F   0  0  0  0  0  0  0  0  0  0  0  0
    3.5724    0.4125    0.0000 C   0  0  0  0  0  0  0  0  0  0  0  0
    3.5724    1.2375    0.0000 F   0  0  0  0  0  0  0  0  0  0  0  0
    4.2868    0.0000    0.0000 C   0  0  0  0  0  0  0  0  0  0  0  0
    4.2868   -0.8250    0.0000 C   0  0  0  0  0  0  0  0  0  0  0  0
    5.0013   -1.2375    0.0000 F   0  0  0  0  0  0  0  0  0  0  0  0
    3.5724   -1.2375    0.0000 C   0  0  0  0  0  0  0  0  0  0  0  0
    2.8579   -2.4750    0.0000 C   0  0  0  0  0  0  0  0  0  0  0  0
    3.5724   -2.0625    0.0000 O   0  0  0  0  0  0  0  0  0  0  0  0
    2.8579   -3.3000    0.0000 O   0  0  0  0  0  0  0  0  0  0  0  0
    0.7145   -4.5375    0.0000 C   0  0  0  0  0  0  0  0  0  0  0  0
    1.4289   -4.9500    0.0000 O   0  0  0  0  0  0  0  0  0  0  0  0
  1  2  1  0  0  0  0
  2  3  1  0  0  0  0
  3  4  1  0  0  0  0
  4  5  2  0  0  0  0
  5  6  1  0  0  0  0
  6  7  1  0  0  0  0
  6  8  2  0  0  0  0
  8  9  1  0  0  0  0
  8 10  1  0  0  0  0
 10 11  1  0  0  0  0
 11 12  1  0  0  0  0
 12 13  1  0  0  0  0
 13 14  1  0  0  0  0
 14 15  1  0  0  0  0
 15 16  2  0  0  0  0
 16 17  1  0  0  0  0
 16 18  1  0  0  0  0
 18 19  1  0  0  0  0
 18 20  2  0  0  0  0
 20 21  1  0  0  0  0
 21 22  1  0  0  0  0
 21 23  2  0  0  0  0
 15 23  1  0  0  0  0
 13 24  1  0  0  0  0
 24 25  1  0  0  0  0
 24 26  2  0  0  0  0
 10 27  2  0  0  0  0
  4 27  1  0  0  0  0
 27 28  1  0  0  0  0
M  END
> <ID>
CPD_4497

$$$$
CPD_4502
  Mrv1822 09091914012D          

 25 27  0  0  0  0            999 V2000
    2.7158    4.2643    0.0000 C   0  0  0  0  0  0  0  0  0  0  0  0
    3.5316    4.1414    0.0000 C   0  0  0  0  0  0  0  0  0  0  0  0
    3.8330    3.3734    0.0000 O   0  0  0  0  0  0  0  0  0  0  0  0
    4.6488    3.2504    0.0000 C   0  0  0  0  0  0  0  0  0  0  0  0
    5.1632    3.8954    0.0000 C   0  0  0  0  0  0  0  0  0  0  0  0
    5.9790    3.7725    0.0000 C   0  0  0  0  0  0  0  0  0  0  0  0
    6.4933    4.4175    0.0000 Br  0  0  0  0  0  0  0  0  0  0  0  0
    6.2804    3.0045    0.0000 C   0  0  0  0  0  0  0  0  0  0  0  0
    7.0961    2.8815    0.0000 Br  0  0  0  0  0  0  0  0  0  0  0  0
    5.7660    2.3595    0.0000 C   0  0  0  0  0  0  0  0  0  0  0  0
    6.0674    1.5915    0.0000 C   0  0  0  0  0  0  0  0  0  0  0  0
    5.5530    0.9465    0.0000 O   0  0  0  0  0  0  0  0  0  0  0  0
    4.9502    2.4825    0.0000 C   0  0  0  0  0  0  0  0  0  0  0  0
    4.4358    1.8374    0.0000 N   0  0  0  0  0  0  0  0  0  0  0  0
    4.7938    1.0941    0.0000 C   0  0  0  0  0  0  0  0  0  0  0  0
    4.4358    0.3508    0.0000 C   0  0  0  0  0  0  0  0  0  0  0  0
    3.6315    0.1673    0.0000 N   0  0  0  0  0  0  0  0  0  0  0  0
    2.9865    0.6816    0.0000 C   0  0  0  0  0  0  0  0  0  0  0  0
    2.9865    1.5066    0.0000 C   0  0  0  0  0  0  0  0  0  0  0  0
    3.6315    2.0210    0.0000 C   0  0  0  0  0  0  0  0  0  0  0  0
    2.2720    1.9191    0.0000 C   0  0  0  0  0  0  0  0  0  0  0  0
    1.5575    1.5066    0.0000 C   0  0  0  0  0  0  0  0  0  0  0  0
    0.8431    1.9191    0.0000 F   0  0  0  0  0  0  0  0  0  0  0  0
    1.5575    0.6816    0.0000 C   0  0  0  0  0  0  0  0  0  0  0  0
    2.2720    0.2691    0.0000 C   0  0  0  0  0  0  0  0  0  0  0  0
  1  2  1  0  0  0  0
  2  3  1  0  0  0  0
  3  4  1  0  0  0  0
  4  5  2  0  0  0  0
  5  6  1  0  0  0  0
  6  7  1  0  0  0  0
  6  8  2  0  0  0  0
  8  9  1  0  0  0  0
  8 10  1  0  0  0  0
 10 11  1  0  0  0  0
 11 12  1  0  0  0  0
 10 13  2  0  0  0  0
  4 13  1  0  0  0  0
 13 14  1  0  0  0  0
 14 15  1  0  0  0  0
 15 16  1  0  0  0  0
 16 17  1  0  0  0  0
 17 18  1  0  0  0  0
 18 19  2  0  0  0  0
 19 20  1  0  0  0  0
 14 20  1  0  0  0  0
 19 21  1  0  0  0  0
 21 22  2  0  0  0  0
 22 23  1  0  0  0  0
 22 24  1  0  0  0  0
 24 25  2  0  0  0  0
 18 25  1  0  0  0  0
M  END
> <ID>
CPD_4502

$$$$
CPD_4507
  Mrv1822 09091914012D          

 25 27  0  0  1  0            999 V2000
    1.4289    0.8250    0.0000 C   0  0  0  0  0  0  0  0  0  0  0  0
    1.4289    0.0000    0.0000 C   0  0  0  0  0  0  0  0  0  0  0  0
    2.1434   -0.4125    0.0000 C   0  0  0  0  0  0  0  0  0  0  0  0
    2.8579    0.0000    0.0000 N   0  0  0  0  0  0  0  0  0  0  0  0
    3.5724   -0.4125    0.0000 C   0  0  0  0  0  0  0  0  0  0  0  0
    4.2868   -0.0000    0.0000 C   0  0  0  0  0  0  0  0  0  0  0  0
    3.5724   -1.2375    0.0000 C   0  0  0  0  0  0  0  0  0  0  0  0
    4.2868   -1.6500    0.0000 Br  0  0  0  0  0  0  0  0  0  0  0  0
    2.8579   -1.6500    0.0000 C   0  0  0  0  0  0  0  0  0  0  0  0
    2.8579   -2.4750    0.0000 O   0  0  0  0  0  0  0  0  0  0  0  0
    2.1434   -2.8875    0.0000 C   0  0  0  0  0  0  0  0  0  0  0  0
    2.1434   -3.7125    0.0000 C   0  0  1  0  0  0  0  0  0  0  0  0
    2.8579   -4.1250    0.0000 O   0  0  0  0  0  0  0  0  0  0  0  0
    1.4289   -4.1250    0.0000 C   0  0  1  0  0  0  0  0  0  0  0  0
    1.3427   -4.9455    0.0000 O   0  0  0  0  0  0  0  0  0  0  0  0
    0.5357   -5.1170    0.0000 C   0  0  0  0  0  0  0  0  0  0  0  0
    0.2002   -5.8707    0.0000 O   0  0  0  0  0  0  0  0  0  0  0  0
    0.1232   -4.4025    0.0000 C   0  0  0  0  0  0  0  0  0  0  0  0
   -0.6972   -4.3163    0.0000 O   0  0  0  0  0  0  0  0  0  0  0  0
    0.6753   -3.7894    0.0000 C   0  0  0  0  0  0  0  0  0  0  0  0
    0.5037   -2.9825    0.0000 O   0  0  0  0  0  0  0  0  0  0  0  0
    2.1434   -1.2375    0.0000 C   0  0  0  0  0  0  0  0  0  0  0  0
    1.4289   -1.6500    0.0000 C   0  0  0  0  0  0  0  0  0  0  0  0
    0.7145   -1.2375    0.0000 C   0  0  0  0  0  0  0  0  0  0  0  0
    0.7145   -0.4125    0.0000 C   0  0  0  0  0  0  0  0  0  0  0  0
  1  2  1  0  0  0  0
  2  3  2  0  0  0  0
  3  4  1  0  0  0  0
  4  5  2  0  0  0  0
  5  6  1  0  0  0  0
  5  7  1  0  0  0  0
  7  8  1  0  0  0  0
  7  9  2  0  0  0  0
  9 10  1  0  0  0  0
 10 11  1  0  0  0  0
 12 11  1  0  0  0  0
 12 13  1  1  0  0  0
 12 14  1  0  0  0  0
 14 15  1  1  0  0  0
 15 16  1  0  0  0  0
 16 17  2  0  0  0  0
 16 18  1  0  0  0  0
 18 19  1  0  0  0  0
 18 20  2  0  0  0  0
 14 20  1  0  0  0  0
 20 21  1  0  0  0  0
  9 22  1  0  0  0  0
  3 22  1  0  0  0  0
 22 23  2  0  0  0  0
 23 24  1  0  0  0  0
 24 25  2  0  0  0  0
  2 25  1  0  0  0  0
M  END
> <ID>
CPD_4507

$$$$
CPD_4512
  Mrv1822 09091914012D          

 18 20  0  0  0  0            999 V2000
    1.4289    0.8250    0.0000 C   0  0  0  0  0  0  0  0  0  0  0  0
    1.4289    0.0000    0.0000 C   0  0  0  0  0  0  0  0  0  0  0  0
    2.1434   -0.4125    0.0000 C   0  0  0  0  0  0  0  0  0  0  0  0
    2.8579    0.0000    0.0000 N   0  0  0  0  0  0  0  0  0  0  0  0
    3.5724   -0.4125    0.0000 C   0  0  0  0  0  0  0  0  0  0  0  0
    4.2868   -0.0000    0.0000 C   0  0  0  0  0  0  0  0  0  0  0  0
    3.5724   -1.2375    0.0000 C   0  0  0  0  0  0  0  0  0  0  0  0
    4.2868   -1.6500    0.0000 Br  0  0  0  0  0  0  0  0  0  0  0  0
    2.8579   -1.6500    0.0000 C   0  0  0  0  0  0  0  0  0  0  0  0
    2.8579   -2.4750    0.0000 N   0  0  0  0  0  0  0  0  0  0  0  0
    3.5253   -2.9599    0.0000 C   0  0  0  0  0  0  0  0  0  0  0  0
    3.2704   -3.7445    0.0000 C   0  0  0  0  0  0  0  0  0  0  0  0
    2.4454   -3.7445    0.0000 C   0  0  0  0  0  0  0  0  0  0  0  0
    2.1904   -2.9599    0.0000 C   0  0  0  0  0  0  0  0  0  0  0  0
    2.1434   -1.2375    0.0000 C   0  0  0  0  0  0  0  0  0  0  0  0
    1.4289   -1.6500    0.0000 C   0  0  0  0  0  0  0  0  0  0  0  0
    0.7145   -1.2375    0.0000 C   0  0  0  0  0  0  0  0  0  0  0  0
    0.7145   -0.4125    0.0000 C   0  0  0  0  0  0  0  0  0  0  0  0
  1  2  1  0  0  0  0
  2  3  2  0  0  0  0
  3  4  1  0  0  0  0
  4  5  2  0  0  0  0
  5  6  1  0  0  0  0
  5  7  1  0  0  0  0
  7  8  1  0  0  0  0
  7  9  2  0  0  0  0
  9 10  1  0  0  0  0
 10 11  1  0  0  0  0
 11 12  1  0  0  0  0
 12 13  1  0  0  0  0
 13 14  1  0  0  0  0
 10 14  1  0  0  0  0
  9 15  1  0  0  0  0
  3 15  1  0  0  0  0
 15 16  2  0  0  0  0
 16 17  1  0  0  0  0
 17 18  2  0  0  0  0
  2 18  1  0  0  0  0
M  END
> <ID>
CPD_4512

$$$$
CPD_4517
  Mrv1822 09091914012D          

 37 40  0  0  0  0            999 V2000
   -2.1434   -1.2375    0.0000 C   0  0  0  0  0  0  0  0  0  0  0  0
   -1.4289   -1.6500    0.0000 O   0  0  0  0  0  0  0  0  0  0  0  0
   -1.4289   -2.4750    0.0000 C   0  0  0  0  0  0  0  0  0  0  0  0
   -0.7145   -2.8875    0.0000 C   0  0  0  0  0  0  0  0  0  0  0  0
   -0.7145   -3.7125    0.0000 C   0  0  0  0  0  0  0  0  0  0  0  0
   -1.4289   -4.1250    0.0000 C   0  0  0  0  0  0  0  0  0  0  0  0
   -2.1434   -3.7125    0.0000 C   0  0  0  0  0  0  0  0  0  0  0  0
   -2.8579   -4.1250    0.0000 C   0  0  0  0  0  0  0  0  0  0  0  0
   -2.8579   -4.9500    0.0000 C   0  0  0  0  0  0  0  0  0  0  0  0
   -3.5724   -5.3625    0.0000 C   0  0  0  0  0  0  0  0  0  0  0  0
   -4.2868   -4.9500    0.0000 N   0  0  0  0  0  0  0  0  0  0  0  0
   -4.2868   -4.1250    0.0000 C   0  0  0  0  0  0  0  0  0  0  0  0
   -5.0013   -3.7125    0.0000 N   0  0  0  0  0  0  0  0  0  0  0  0
   -5.0013   -2.8875    0.0000 C   0  0  0  0  0  0  0  0  0  0  0  0
   -4.2868   -2.4750    0.0000 C   0  0  0  0  0  0  0  0  0  0  0  0
   -4.2868   -1.6500    0.0000 N   0  0  0  0  0  0  0  0  0  0  0  0
   -5.7158   -2.4750    0.0000 C   0  0  0  0  0  0  0  0  0  0  0  0
   -5.7158   -1.6500    0.0000 N   0  0  0  0  0  0  0  0  0  0  0  0
   -6.4302   -1.2375    0.0000 C   0  0  0  0  0  0  0  0  0  0  0  0
   -6.4302   -0.4125    0.0000 C   0  0  0  0  0  0  0  0  0  0  0  0
   -5.7158   -0.0000    0.0000 O   0  0  0  0  0  0  0  0  0  0  0  0
   -5.0013   -0.4125    0.0000 C   0  0  0  0  0  0  0  0  0  0  0  0
   -5.0013   -1.2375    0.0000 C   0  0  0  0  0  0  0  0  0  0  0  0
   -3.5724   -3.7125    0.0000 N   0  0  0  0  0  0  0  0  0  0  0  0
   -3.5724   -6.1875    0.0000 C   0  0  0  0  0  0  0  0  0  0  0  0
   -2.8579   -6.6000    0.0000 C   0  0  0  0  0  0  0  0  0  0  0  0
   -2.8579   -7.4250    0.0000 C   0  0  0  0  0  0  0  0  0  0  0  0
   -2.1434   -7.8375    0.0000 O   0  0  0  0  0  0  0  0  0  0  0  0
   -2.1434   -8.6625    0.0000 C   0  0  0  0  0  0  0  0  0  0  0  0
   -3.5724   -7.8375    0.0000 C   0  0  0  0  0  0  0  0  0  0  0  0
   -3.5724   -8.6625    0.0000 O   0  0  0  0  0  0  0  0  0  0  0  0
   -2.8579   -9.0750    0.0000 C   0  0  0  0  0  0  0  0  0  0  0  0
   -4.2868   -7.4250    0.0000 C   0  0  0  0  0  0  0  0  0  0  0  0
   -4.2868   -6.6000    0.0000 C   0  0  0  0  0  0  0  0  0  0  0  0
   -2.1434   -2.8875    0.0000 C   0  0  0  0  0  0  0  0  0  0  0  0
   -2.8579   -2.4750    0.0000 O   0  0  0  0  0  0  0  0  0  0  0  0
   -2.8579   -1.6500    0.0000 C   0  0  0  0  0  0  0  0  0  0  0  0
  1  2  1  0  0  0  0
  2  3  1  0  0  0  0
  3  4  2  0  0  0  0
  4  5  1  0  0  0  0
  5  6  2  0  0  0  0
  6  7  1  0  0  0  0
  7  8  1  0  0  0  0
  8  9  2  0  0  0  0
  9 10  1  0  0  0  0
 10 11  2  0  0  0  0
 11 12  1  0  0  0  0
 12 13  1  0  0  0  0
 13 14  1  0  0  0  0
 14 15  1  0  0  0  0
 15 16  1  0  0  0  0
 14 17  1  0  0  0  0
 17 18  1  0  0  0  0
 18 19  1  0  0  0  0
 19 20  1  0  0  0  0
 20 21  1  0  0  0  0
 21 22  1  0  0  0  0
 22 23  1  0  0  0  0
 18 23  1  0  0  0  0
 12 24  2  0  0  0  0
  8 24  1  0  0  0  0
 10 25  1  0  0  0  0
 25 26  2  0  0  0  0
 26 27  1  0  0  0  0
 27 28  1  0  0  0  0
 28 29  1  0  0  0  0
 27 30  2  0  0  0  0
 30 31  1  0  0  0  0
 31 32  1  0  0  0  0
 30 33  1  0  0  0  0
 33 34  2  0  0  0  0
 25 34  1  0  0  0  0
  7 35  2  0  0  0  0
  3 35  1  0  0  0  0
 35 36  1  0  0  0  0
 36 37  1  0  0  0  0
M  END
> <ID>
CPD_4517

$$$$
CPD_4522
  Mrv1822 09091914012D          

 37 40  0  0  0  0            999 V2000
   -2.1434   -1.2375    0.0000 C   0  0  0  0  0  0  0  0  0  0  0  0
   -1.4289   -1.6500    0.0000 O   0  0  0  0  0  0  0  0  0  0  0  0
   -1.4289   -2.4750    0.0000 C   0  0  0  0  0  0  0  0  0  0  0  0
   -0.7145   -2.8875    0.0000 C   0  0  0  0  0  0  0  0  0  0  0  0
   -0.7145   -3.7125    0.0000 C   0  0  0  0  0  0  0  0  0  0  0  0
   -1.4289   -4.1250    0.0000 C   0  0  0  0  0  0  0  0  0  0  0  0
   -2.1434   -3.7125    0.0000 C   0  0  0  0  0  0  0  0  0  0  0  0
   -2.8579   -4.1250    0.0000 O   0  0  0  0  0  0  0  0  0  0  0  0
   -3.5724   -3.7125    0.0000 C   0  0  0  0  0  0  0  0  0  0  0  0
   -2.1434   -2.8875    0.0000 C   0  0  0  0  0  0  0  0  0  0  0  0
   -2.8579   -2.4750    0.0000 O   0  0  0  0  0  0  0  0  0  0  0  0
   -2.8579   -1.6500    0.0000 C   0  0  0  0  0  0  0  0  0  0  0  0
    0.0000   -4.1250    0.0000 C   0  0  0  0  0  0  0  0  0  0  0  0
    0.7145   -3.7125    0.0000 C   0  0  0  0  0  0  0  0  0  0  0  0
    1.4289   -4.1250    0.0000 C   0  0  0  0  0  0  0  0  0  0  0  0
    1.4289   -4.9500    0.0000 N   0  0  0  0  0  0  0  0  0  0  0  0
    0.7145   -5.3625    0.0000 C   0  0  0  0  0  0  0  0  0  0  0  0
    0.7145   -6.1875    0.0000 N   0  0  0  0  0  0  0  0  0  0  0  0
    0.0000   -6.6000    0.0000 C   0  0  0  0  0  0  0  0  0  0  0  0
   -0.7145   -6.1875    0.0000 C   0  0  0  0  0  0  0  0  0  0  0  0
   -1.4289   -6.6000    0.0000 N   0  0  0  0  0  0  0  0  0  0  0  0
    0.0000   -7.4250    0.0000 C   0  0  0  0  0  0  0  0  0  0  0  0
   -0.7145   -7.8375    0.0000 N   0  0  0  0  0  0  0  0  0  0  0  0
   -0.7145   -8.6625    0.0000 C   0  0  0  0  0  0  0  0  0  0  0  0
   -1.4289   -9.0750    0.0000 C   0  0  0  0  0  0  0  0  0  0  0  0
   -2.1434   -8.6625    0.0000 O   0  0  0  0  0  0  0  0  0  0  0  0
   -2.1434   -7.8375    0.0000 C   0  0  0  0  0  0  0  0  0  0  0  0
   -1.4289   -7.4250    0.0000 C   0  0  0  0  0  0  0  0  0  0  0  0
    0.0000   -4.9500    0.0000 N   0  0  0  0  0  0  0  0  0  0  0  0
    2.1434   -3.7125    0.0000 C   0  0  0  0  0  0  0  0  0  0  0  0
    2.1434   -2.8875    0.0000 C   0  0  0  0  0  0  0  0  0  0  0  0
    2.8579   -2.4750    0.0000 C   0  0  0  0  0  0  0  0  0  0  0  0
    2.8579   -1.6500    0.0000 C   0  0  0  0  0  0  0  0  0  0  0  0
    3.5724   -2.8875    0.0000 C   0  0  0  0  0  0  0  0  0  0  0  0
    4.2868   -2.4750    0.0000 C   0  0  0  0  0  0  0  0  0  0  0  0
    3.5724   -3.7125    0.0000 C   0  0  0  0  0  0  0  0  0  0  0  0
    2.8579   -4.1250    0.0000 C   0  0  0  0  0  0  0  0  0  0  0  0
  1  2  1  0  0  0  0
  2  3  1  0  0  0  0
  3  4  2  0  0  0  0
  4  5  1  0  0  0  0
  5  6  2  0  0  0  0
  6  7  1  0  0  0  0
  7  8  1  0  0  0  0
  8  9  1  0  0  0  0
  7 10  2  0  0  0  0
  3 10  1  0  0  0  0
 10 11  1  0  0  0  0
 11 12  1  0  0  0  0
  5 13  1  0  0  0  0
 13 14  2  0  0  0  0
 14 15  1  0  0  0  0
 15 16  2  0  0  0  0
 16 17  1  0  0  0  0
 17 18  1  0  0  0  0
 18 19  1  0  0  0  0
 19 20  1  0  0  0  0
 20 21  1  0  0  0  0
 19 22  1  0  0  0  0
 22 23  1  0  0  0  0
 23 24  1  0  0  0  0
 24 25  1  0  0  0  0
 25 26  1  0  0  0  0
 26 27  1  0  0  0  0
 27 28  1  0  0  0  0
 23 28  1  0  0  0  0
 17 29  2  0  0  0  0
 13 29  1  0  0  0  0
 15 30  1  0  0  0  0
 30 31  2  0  0  0  0
 31 32  1  0  0  0  0
 32 33  1  0  0  0  0
 32 34  2  0  0  0  0
 34 35  1  0  0  0  0
 34 36  1  0  0  0  0
 36 37  2  0  0  0  0
 30 37  1  0  0  0  0
M  END
> <ID>
CPD_4522

$$$$
CPD_4527
  Mrv1822 09091914012D          

 30 33  0  0  0  0            999 V2000
   -1.6193   -3.3229    0.0000 N   0  0  0  0  0  0  0  0  0  0  0  0
   -1.8032   -2.5186    0.0000 C   0  0  0  0  0  0  0  0  0  0  0  0
   -1.1708   -1.9315    0.0000 C   0  0  0  0  0  0  0  0  0  0  0  0
   -1.9370   -1.5694    0.0000 C   0  0  0  0  0  0  0  0  0  0  0  0
   -2.6153   -2.0391    0.0000 N   0  0  0  0  0  0  0  0  0  0  0  0
   -2.5476   -2.8613    0.0000 C   0  0  0  0  0  0  0  0  0  0  0  0
   -3.2258   -3.3310    0.0000 C   0  0  0  0  0  0  0  0  0  0  0  0
   -3.9717   -2.9786    0.0000 O   0  0  0  0  0  0  0  0  0  0  0  0
   -4.0394   -2.1563    0.0000 C   0  0  0  0  0  0  0  0  0  0  0  0
   -3.3612   -1.6866    0.0000 C   0  0  0  0  0  0  0  0  0  0  0  0
   -0.2975   -1.6320    0.0000 N   0  0  0  0  0  0  0  0  0  0  0  0
   -0.0425   -2.4167    0.0000 C   0  0  0  0  0  0  0  0  0  0  0  0
   -0.2861   -3.2343    0.0000 N   0  0  0  0  0  0  0  0  0  0  0  0
    0.7825   -2.4167    0.0000 N   0  0  0  0  0  0  0  0  0  0  0  0
    1.0374   -1.6320    0.0000 C   0  0  0  0  0  0  0  0  0  0  0  0
    1.8736   -1.8712    0.0000 O   0  0  0  0  0  0  0  0  0  0  0  0
    0.3700   -1.1471    0.0000 C   0  0  0  0  0  0  0  0  0  0  0  0
    1.0070   -0.8867    0.0000 C   0  0  0  0  0  0  0  0  0  0  0  0
    1.5999   -0.4197    0.0000 C   0  0  0  0  0  0  0  0  0  0  0  0
    0.8127   -0.1730    0.0000 C   0  0  0  0  0  0  0  0  0  0  0  0
    0.8040    0.6519    0.0000 C   0  0  0  0  0  0  0  0  0  0  0  0
    1.5859    0.9151    0.0000 C   0  0  0  0  0  0  0  0  0  0  0  0
    2.0778    0.2528    0.0000 O   0  0  0  0  0  0  0  0  0  0  0  0
   -0.0350   -0.4284    0.0000 C   0  0  0  0  0  0  0  0  0  0  0  0
   -0.8600   -0.4197    0.0000 C   0  0  0  0  0  0  0  0  0  0  0  0
   -1.2650    0.2990    0.0000 C   0  0  0  0  0  0  0  0  0  0  0  0
   -0.8450    1.0091    0.0000 C   0  0  0  0  0  0  0  0  0  0  0  0
   -1.3275    1.7193    0.0000 Cl  0  0  0  0  0  0  0  0  0  0  0  0
   -0.0201    1.0005    0.0000 C   0  0  0  0  0  0  0  0  0  0  0  0
    0.3849    0.2817    0.0000 C   0  0  0  0  0  0  0  0  0  0  0  0
  1  2  1  0  0  0  0
  2  3  1  0  0  0  0
  3  4  1  0  0  0  0
  4  5  1  0  0  0  0
  5  6  1  0  0  0  0
  6  7  1  0  0  0  0
  7  8  1  0  0  0  0
  8  9  1  0  0  0  0
  9 10  1  0  0  0  0
  5 10  1  0  0  0  0
  3 11  1  0  0  0  0
 11 12  1  0  0  0  0
 12 13  1  0  0  0  0
 12 14  2  0  0  0  0
 14 15  1  0  0  0  0
 15 16  2  0  0  0  0
 15 17  1  0  0  0  0
 11 17  1  0  0  0  0
 17 18  1  0  0  0  0
 18 19  1  0  0  0  0
 19 20  2  0  0  0  0
 20 21  1  0  0  0  0
 21 22  2  0  0  0  0
 22 23  1  0  0  0  0
 19 23  1  0  0  0  0
 17 24  1  0  0  0  0
 24 25  2  0  0  0  0
 25 26  1  0  0  0  0
 26 27  2  0  0  0  0
 27 28  1  0  0  0  0
 27 29  1  0  0  0  0
 29 30  2  0  0  0  0
 24 30  1  0  0  0  0
M  END
> <ID>
CPD_4527

$$$$
CPD_4532
  Mrv1822 09091914012D          

 20 21  0  0  0  0            999 V2000
    2.1434   -0.4125    0.0000 C   0  0  0  0  0  0  0  0  0  0  0  0
    2.1434   -1.2375    0.0000 O   0  0  0  0  0  0  0  0  0  0  0  0
    1.4289   -1.6500    0.0000 C   0  0  0  0  0  0  0  0  0  0  0  0
    0.7145   -1.2375    0.0000 O   0  0  0  0  0  0  0  0  0  0  0  0
    1.4289   -2.4750    0.0000 C   0  0  0  0  0  0  0  0  0  0  0  0
    2.0964   -2.9599    0.0000 C   0  0  0  0  0  0  0  0  0  0  0  0
    2.8810   -2.7050    0.0000 Cl  0  0  0  0  0  0  0  0  0  0  0  0
    1.8414   -3.7445    0.0000 C   0  0  0  0  0  0  0  0  0  0  0  0
    1.0164   -3.7445    0.0000 C   0  0  0  0  0  0  0  0  0  0  0  0
    0.7615   -2.9599    0.0000 N   0  0  0  0  0  0  0  0  0  0  0  0
   -0.0231   -2.7050    0.0000 C   0  0  0  0  0  0  0  0  0  0  0  0
   -0.1946   -1.8980    0.0000 C   0  0  0  0  0  0  0  0  0  0  0  0
   -0.9793   -1.6431    0.0000 N   0  0  0  0  0  0  0  0  0  0  0  0
   -0.6362   -3.2570    0.0000 C   0  0  0  0  0  0  0  0  0  0  0  0
   -1.4208   -3.0021    0.0000 N   0  0  0  0  0  0  0  0  0  0  0  0
   -2.0339   -3.5541    0.0000 C   0  0  0  0  0  0  0  0  0  0  0  0
   -2.8186   -3.2992    0.0000 C   0  0  0  0  0  0  0  0  0  0  0  0
   -2.9901   -2.4922    0.0000 O   0  0  0  0  0  0  0  0  0  0  0  0
   -2.3770   -1.9402    0.0000 C   0  0  0  0  0  0  0  0  0  0  0  0
   -1.5924   -2.1951    0.0000 C   0  0  0  0  0  0  0  0  0  0  0  0
  1  2  1  0  0  0  0
  2  3  1  0  0  0  0
  3  4  2  0  0  0  0
  3  5  1  0  0  0  0
  5  6  2  0  0  0  0
  6  7  1  0  0  0  0
  6  8  1  0  0  0  0
  8  9  2  0  0  0  0
  9 10  1  0  0  0  0
  5 10  1  0  0  0  0
 10 11  1  0  0  0  0
 11 12  1  0  0  0  0
 12 13  1  0  0  0  0
 11 14  1  0  0  0  0
 14 15  1  0  0  0  0
 15 16  1  0  0  0  0
 16 17  1  0  0  0  0
 17 18  1  0  0  0  0
 18 19  1  0  0  0  0
 19 20  1  0  0  0  0
 15 20  1  0  0  0  0
M  END
> <ID>
CPD_4532

$$$$
CPD_4537
  Mrv1822 09091914012D          

 31 34  0  0  0  0            999 V2000
   -0.3984    0.7541    0.0000 C   0  0  0  0  0  0  0  0  0  0  0  0
   -0.1435   -0.0305    0.0000 N   0  0  0  0  0  0  0  0  0  0  0  0
   -0.6284   -0.6979    0.0000 C   0  0  0  0  0  0  0  0  0  0  0  0
   -1.4534   -0.6979    0.0000 O   0  0  0  0  0  0  0  0  0  0  0  0
   -0.1435   -1.3654    0.0000 C   0  0  0  0  0  0  0  0  0  0  0  0
   -0.8580   -1.7779    0.0000 C   0  0  0  0  0  0  0  0  0  0  0  0
   -0.8580   -2.6029    0.0000 C   0  0  0  0  0  0  0  0  0  0  0  0
   -0.1435   -3.0154    0.0000 O   0  0  0  0  0  0  0  0  0  0  0  0
   -1.5724   -3.0154    0.0000 C   0  0  0  0  0  0  0  0  0  0  0  0
   -1.6587   -3.8359    0.0000 C   0  0  0  0  0  0  0  0  0  0  0  0
   -2.4657   -4.0074    0.0000 C   0  0  0  0  0  0  0  0  0  0  0  0
   -2.8782   -3.2929    0.0000 C   0  0  0  0  0  0  0  0  0  0  0  0
   -2.3261   -2.6798    0.0000 O   0  0  0  0  0  0  0  0  0  0  0  0
    0.1921   -2.1191    0.0000 N   0  0  0  0  0  0  0  0  0  0  0  0
    1.0125   -2.2053    0.0000 C   0  0  0  0  0  0  0  0  0  0  0  0
    1.3481   -2.9590    0.0000 C   0  0  0  0  0  0  0  0  0  0  0  0
    0.5944   -3.2945    0.0000 C   0  0  0  0  0  0  0  0  0  0  0  0
    2.1018   -2.6234    0.0000 C   0  0  0  0  0  0  0  0  0  0  0  0
    1.6836   -3.7126    0.0000 C   0  0  0  0  0  0  0  0  0  0  0  0
    2.5041   -3.7989    0.0000 C   0  0  0  0  0  0  0  0  0  0  0  0
    2.8397   -4.5526    0.0000 C   0  0  0  0  0  0  0  0  0  0  0  0
    2.3548   -5.2200    0.0000 C   0  0  0  0  0  0  0  0  0  0  0  0
    2.6903   -5.9737    0.0000 F   0  0  0  0  0  0  0  0  0  0  0  0
    1.5343   -5.1338    0.0000 C   0  0  0  0  0  0  0  0  0  0  0  0
    1.1987   -4.3801    0.0000 C   0  0  0  0  0  0  0  0  0  0  0  0
    0.6411   -1.1104    0.0000 C   0  0  0  0  0  0  0  0  0  0  0  0
    0.6411   -0.2854    0.0000 C   0  0  0  0  0  0  0  0  0  0  0  0
    1.3556    0.1271    0.0000 C   0  0  0  0  0  0  0  0  0  0  0  0
    2.0701   -0.2854    0.0000 C   0  0  0  0  0  0  0  0  0  0  0  0
    2.0701   -1.1104    0.0000 C   0  0  0  0  0  0  0  0  0  0  0  0
    1.3556   -1.5229    0.0000 C   0  0  0  0  0  0  0  0  0  0  0  0
  1  2  1  0  0  0  0
  2  3  1  0  0  0  0
  3  4  2  0  0  0  0
  3  5  1  0  0  0  0
  5  6  1  0  0  0  0
  6  7  1  0  0  0  0
  7  8  2  0  0  0  0
  7  9  1  0  0  0  0
  9 10  2  0  0  0  0
 10 11  1  0  0  0  0
 11 12  2  0  0  0  0
 12 13  1  0  0  0  0
  9 13  1  0  0  0  0
  5 14  1  0  0  0  0
 14 15  1  0  0  0  0
 15 16  1  0  0  0  0
 16 17  1  0  0  0  0
 16 18  1  0  0  0  0
 16 19  1  0  0  0  0
 19 20  2  0  0  0  0
 20 21  1  0  0  0  0
 21 22  2  0  0  0  0
 22 23  1  0  0  0  0
 22 24  1  0  0  0  0
 24 25  2  0  0  0  0
 19 25  1  0  0  0  0
  5 26  1  0  0  0  0
 26 27  2  0  0  0  0
  2 27  1  0  0  0  0
 27 28  1  0  0  0  0
 28 29  2  0  0  0  0
 29 30  1  0  0  0  0
 30 31  2  0  0  0  0
 26 31  1  0  0  0  0
M  END
> <ID>
CPD_4537

$$$$
CPD_4542
  Mrv1822 09091914012D          

 26 29  0  0  0  0            999 V2000
   -1.5724   -1.4594    0.0000 C   0  0  0  0  0  0  0  0  0  0  0  0
   -1.1599   -0.7450    0.0000 C   0  0  0  0  0  0  0  0  0  0  0  0
   -1.5724   -0.0305    0.0000 C   0  0  0  0  0  0  0  0  0  0  0  0
   -1.9849    0.6840    0.0000 C   0  0  0  0  0  0  0  0  0  0  0  0
   -2.6994    0.2715    0.0000 O   0  0  0  0  0  0  0  0  0  0  0  0
   -2.2869   -0.4430    0.0000 C   0  0  0  0  0  0  0  0  0  0  0  0
   -0.8580    0.3820    0.0000 N   0  0  0  0  0  0  0  0  0  0  0  0
   -0.1435   -0.0305    0.0000 C   0  0  0  0  0  0  0  0  0  0  0  0
    0.1921    0.7232    0.0000 C   0  0  0  0  0  0  0  0  0  0  0  0
   -0.2929    1.3906    0.0000 C   0  0  0  0  0  0  0  0  0  0  0  0
   -1.1134    1.3044    0.0000 O   0  0  0  0  0  0  0  0  0  0  0  0
    0.0427    2.1443    0.0000 C   0  0  0  0  0  0  0  0  0  0  0  0
   -0.3698    2.8588    0.0000 C   0  0  0  0  0  0  0  0  0  0  0  0
    0.1822    3.4719    0.0000 C   0  0  0  0  0  0  0  0  0  0  0  0
    0.9359    3.1363    0.0000 C   0  0  0  0  0  0  0  0  0  0  0  0
    0.8497    2.3158    0.0000 O   0  0  0  0  0  0  0  0  0  0  0  0
   -0.6284   -0.6979    0.0000 C   0  0  0  0  0  0  0  0  0  0  0  0
   -1.1134   -1.3654    0.0000 O   0  0  0  0  0  0  0  0  0  0  0  0
   -0.1435   -1.3654    0.0000 N   0  0  0  0  0  0  0  0  0  0  0  0
   -0.3984   -2.1500    0.0000 C   0  0  0  0  0  0  0  0  0  0  0  0
    0.6411   -1.1104    0.0000 C   0  0  0  0  0  0  0  0  0  0  0  0
    0.6411   -0.2854    0.0000 C   0  0  0  0  0  0  0  0  0  0  0  0
    1.3556    0.1271    0.0000 C   0  0  0  0  0  0  0  0  0  0  0  0
    2.0701   -0.2854    0.0000 C   0  0  0  0  0  0  0  0  0  0  0  0
    2.0701   -1.1104    0.0000 C   0  0  0  0  0  0  0  0  0  0  0  0
    1.3556   -1.5229    0.0000 C   0  0  0  0  0  0  0  0  0  0  0  0
  1  2  1  0  0  0  0
  2  3  1  0  0  0  0
  3  4  1  0  0  0  0
  4  5  1  0  0  0  0
  5  6  1  0  0  0  0
  3  6  1  0  0  0  0
  3  7  1  0  0  0  0
  7  8  1  0  0  0  0
  8  9  1  0  0  0  0
  9 10  1  0  0  0  0
 10 11  2  0  0  0  0
 10 12  1  0  0  0  0
 12 13  2  0  0  0  0
 13 14  1  0  0  0  0
 14 15  2  0  0  0  0
 15 16  1  0  0  0  0
 12 16  1  0  0  0  0
  8 17  1  0  0  0  0
 17 18  2  0  0  0  0
 17 19  1  0  0  0  0
 19 20  1  0  0  0  0
 19 21  1  0  0  0  0
 21 22  2  0  0  0  0
  8 22  1  0  0  0  0
 22 23  1  0  0  0  0
 23 24  2  0  0  0  0
 24 25  1  0  0  0  0
 25 26  2  0  0  0  0
 21 26  1  0  0  0  0
M  END
> <ID>
CPD_4542

$$$$
CPD_4547
  Mrv1822 09091914012D          

 29 32  0  0  0  0            999 V2000
   -0.3984    0.7541    0.0000 C   0  0  0  0  0  0  0  0  0  0  0  0
   -0.1435   -0.0305    0.0000 N   0  0  0  0  0  0  0  0  0  0  0  0
   -0.6284   -0.6979    0.0000 C   0  0  0  0  0  0  0  0  0  0  0  0
   -1.4534   -0.6979    0.0000 O   0  0  0  0  0  0  0  0  0  0  0  0
   -0.1435   -1.3654    0.0000 C   0  0  0  0  0  0  0  0  0  0  0  0
    0.1921   -2.1191    0.0000 C   0  0  0  0  0  0  0  0  0  0  0  0
    1.0125   -2.2053    0.0000 C   0  0  0  0  0  0  0  0  0  0  0  0
    1.6800   -1.7204    0.0000 O   0  0  0  0  0  0  0  0  0  0  0  0
    1.3481   -2.9590    0.0000 C   0  0  0  0  0  0  0  0  0  0  0  0
    2.1551   -3.1305    0.0000 C   0  0  0  0  0  0  0  0  0  0  0  0
    2.2413   -3.9510    0.0000 C   0  0  0  0  0  0  0  0  0  0  0  0
    1.4876   -4.2865    0.0000 C   0  0  0  0  0  0  0  0  0  0  0  0
    0.9356   -3.6734    0.0000 O   0  0  0  0  0  0  0  0  0  0  0  0
   -0.8580   -1.7779    0.0000 N   0  0  0  0  0  0  0  0  0  0  0  0
   -1.5724   -1.3654    0.0000 C   0  0  0  0  0  0  0  0  0  0  0  0
   -2.2869   -1.7779    0.0000 C   0  0  0  0  0  0  0  0  0  0  0  0
   -2.2869   -2.6029    0.0000 N   0  0  0  0  0  0  0  0  0  0  0  0
   -3.0014   -3.0154    0.0000 C   0  0  0  0  0  0  0  0  0  0  0  0
   -1.5724   -3.0154    0.0000 C   0  0  0  0  0  0  0  0  0  0  0  0
   -0.8580   -2.6029    0.0000 C   0  0  0  0  0  0  0  0  0  0  0  0
   -0.1435   -3.0154    0.0000 C   0  0  0  0  0  0  0  0  0  0  0  0
   -0.1435   -3.8404    0.0000 O   0  0  0  0  0  0  0  0  0  0  0  0
    0.5710   -2.6029    0.0000 O   0  0  0  0  0  0  0  0  0  0  0  0
    0.6411   -1.1104    0.0000 C   0  0  0  0  0  0  0  0  0  0  0  0
    0.6411   -0.2854    0.0000 C   0  0  0  0  0  0  0  0  0  0  0  0
    1.3556    0.1271    0.0000 C   0  0  0  0  0  0  0  0  0  0  0  0
    2.0701   -0.2854    0.0000 C   0  0  0  0  0  0  0  0  0  0  0  0
    2.0701   -1.1104    0.0000 C   0  0  0  0  0  0  0  0  0  0  0  0
    1.3556   -1.5229    0.0000 C   0  0  0  0  0  0  0  0  0  0  0  0
  1  2  1  0  0  0  0
  2  3  1  0  0  0  0
  3  4  2  0  0  0  0
  3  5  1  0  0  0  0
  5  6  1  0  0  0  0
  6  7  1  0  0  0  0
  7  8  2  0  0  0  0
  7  9  1  0  0  0  0
  9 10  2  0  0  0  0
 10 11  1  0  0  0  0
 11 12  2  0  0  0  0
 12 13  1  0  0  0  0
  9 13  1  0  0  0  0
  5 14  1  0  0  0  0
 14 15  1  0  0  0  0
 15 16  1  0  0  0  0
 16 17  1  0  0  0  0
 17 18  1  0  0  0  0
 17 19  1  0  0  0  0
 19 20  1  0  0  0  0
 14 20  1  0  0  0  0
 20 21  1  0  0  0  0
 21 22  1  0  0  0  0
 21 23  2  0  0  0  0
  5 24  1  0  0  0  0
 24 25  2  0  0  0  0
  2 25  1  0  0  0  0
 25 26  1  0  0  0  0
 26 27  2  0  0  0  0
 27 28  1  0  0  0  0
 28 29  2  0  0  0  0
 24 29  1  0  0  0  0
M  END
> <ID>
CPD_4547

$$$$
CPD_4552
  Mrv1822 09091914012D          

 21 22  0  0  0  0            999 V2000
   -4.2868    2.4750    0.0000 O   0  0  0  0  0  0  0  0  0  0  0  0
   -3.5724    2.0625    0.0000 C   0  0  0  0  0  0  0  0  0  0  0  0
   -2.8579    2.4750    0.0000 C   0  0  0  0  0  0  0  0  0  0  0  0
   -2.1434    2.0625    0.0000 C   0  0  0  0  0  0  0  0  0  0  0  0
   -1.4289    2.4750    0.0000 C   0  0  0  0  0  0  0  0  0  0  0  0
   -0.7145    2.0625    0.0000 C   0  0  0  0  0  0  0  0  0  0  0  0
    0.0000    2.4750    0.0000 C   0  0  0  0  0  0  0  0  0  0  0  0
    0.0000    3.3000    0.0000 O   0  0  0  0  0  0  0  0  0  0  0  0
    0.7145    2.0625    0.0000 O   0  0  0  0  0  0  0  0  0  0  0  0
    1.4289    2.4750    0.0000 C   0  0  0  0  0  0  0  0  0  0  0  0
    2.1434    2.8875    0.0000 C   0  0  0  0  0  0  0  0  0  0  0  0
    1.7309    3.6020    0.0000 N   0  0  0  0  0  0  0  0  0  0  0  0
    1.0164    3.1895    0.0000 C   0  0  0  0  0  0  0  0  0  0  0  0
    1.8414    1.7605    0.0000 C   0  0  0  0  0  0  0  0  0  0  0  0
    2.2539    1.0461    0.0000 F   0  0  0  0  0  0  0  0  0  0  0  0
    1.1270    1.3480    0.0000 F   0  0  0  0  0  0  0  0  0  0  0  0
    2.5559    2.1730    0.0000 F   0  0  0  0  0  0  0  0  0  0  0  0
   -2.1434    1.2375    0.0000 C   0  0  0  0  0  0  0  0  0  0  0  0
   -2.8579    0.8250    0.0000 C   0  0  0  0  0  0  0  0  0  0  0  0
   -2.8579    0.0000    0.0000 O   0  0  0  0  0  0  0  0  0  0  0  0
   -3.5724    1.2375    0.0000 C   0  0  0  0  0  0  0  0  0  0  0  0
  1  2  1  0  0  0  0
  2  3  2  0  0  0  0
  3  4  1  0  0  0  0
  4  5  1  0  0  0  0
  5  6  1  0  0  0  0
  6  7  1  0  0  0  0
  7  8  2  0  0  0  0
  7  9  1  0  0  0  0
  9 10  1  0  0  0  0
 10 11  1  0  0  0  0
 11 12  1  0  0  0  0
 12 13  1  0  0  0  0
 10 13  1  0  0  0  0
 10 14  1  0  0  0  0
 14 15  1  0  0  0  0
 14 16  1  0  0  0  0
 14 17  1  0  0  0  0
  4 18  2  0  0  0  0
 18 19  1  0  0  0  0
 19 20  1  0  0  0  0
 19 21  2  0  0  0  0
  2 21  1  0  0  0  0
M  END
> <ID>
CPD_4552

$$$$
CPD_4557
  Mrv1822 09091914012D          

 23 25  0  0  0  0            999 V2000
    2.8976   -2.3749    0.0000 F   0  0  0  0  0  0  0  0  0  0  0  0
    2.3143   -2.9583    0.0000 C   0  0  0  0  0  0  0  0  0  0  0  0
    1.7309   -2.3749    0.0000 F   0  0  0  0  0  0  0  0  0  0  0  0
    2.8976   -3.5416    0.0000 F   0  0  0  0  0  0  0  0  0  0  0  0
    1.7309   -3.5416    0.0000 C   0  0  0  0  0  0  0  0  0  0  0  0
    1.1475   -4.1250    0.0000 C   0  0  0  0  0  0  0  0  0  0  0  0
    1.7309   -4.7084    0.0000 N   0  0  0  0  0  0  0  0  0  0  0  0
    2.3143   -4.1250    0.0000 C   0  0  0  0  0  0  0  0  0  0  0  0
    1.1475   -2.9583    0.0000 N   0  0  0  0  0  0  0  0  0  0  0  0
    1.3611   -2.1614    0.0000 C   0  0  0  0  0  0  0  0  0  0  0  0
    0.7777   -1.5780    0.0000 C   0  0  0  0  0  0  0  0  0  0  0  0
   -0.0192   -1.7915    0.0000 C   0  0  0  0  0  0  0  0  0  0  0  0
   -0.2327   -2.5884    0.0000 C   0  0  0  0  0  0  0  0  0  0  0  0
   -1.0296   -2.8020    0.0000 C   0  0  0  0  0  0  0  0  0  0  0  0
   -1.6130   -2.2186    0.0000 C   0  0  0  0  0  0  0  0  0  0  0  0
   -2.4098   -2.4321    0.0000 C   0  0  0  0  0  0  0  0  0  0  0  0
   -2.9932   -1.8488    0.0000 C   0  0  0  0  0  0  0  0  0  0  0  0
   -2.7797   -1.0519    0.0000 C   0  0  0  0  0  0  0  0  0  0  0  0
   -1.9828   -0.8383    0.0000 C   0  0  0  0  0  0  0  0  0  0  0  0
   -1.3994   -1.4217    0.0000 C   0  0  0  0  0  0  0  0  0  0  0  0
   -0.6025   -1.2082    0.0000 Cl  0  0  0  0  0  0  0  0  0  0  0  0
    0.3507   -3.1718    0.0000 C   0  0  0  0  0  0  0  0  0  0  0  0
    0.1371   -3.9687    0.0000 O   0  0  0  0  0  0  0  0  0  0  0  0
  1  2  1  0  0  0  0
  2  3  1  0  0  0  0
  2  4  1  0  0  0  0
  2  5  1  0  0  0  0
  5  6  1  0  0  0  0
  6  7  1  0  0  0  0
  7  8  1  0  0  0  0
  5  8  1  0  0  0  0
  5  9  1  0  0  0  0
  9 10  1  0  0  0  0
 10 11  1  0  0  0  0
 11 12  1  0  0  0  0
 12 13  1  0  0  0  0
 13 14  1  0  0  0  0
 14 15  1  0  0  0  0
 15 16  2  0  0  0  0
 16 17  1  0  0  0  0
 17 18  2  0  0  0  0
 18 19  1  0  0  0  0
 19 20  2  0  0  0  0
 15 20  1  0  0  0  0
 20 21  1  0  0  0  0
 13 22  1  0  0  0  0
  9 22  1  0  0  0  0
 22 23  2  0  0  0  0
M  END
> <ID>
CPD_4557

$$$$
CPD_4562
  Mrv1822 09091914012D          

 18 19  0  0  0  0            999 V2000
    1.5402   -0.9864    0.0000 F   0  0  0  0  0  0  0  0  0  0  0  0
    2.1235   -1.5698    0.0000 C   0  0  0  0  0  0  0  0  0  0  0  0
    1.5402   -2.1532    0.0000 F   0  0  0  0  0  0  0  0  0  0  0  0
    2.7069   -0.9864    0.0000 F   0  0  0  0  0  0  0  0  0  0  0  0
    2.7069   -2.1532    0.0000 C   0  0  0  0  0  0  0  0  0  0  0  0
    3.2903   -2.7365    0.0000 C   0  0  0  0  0  0  0  0  0  0  0  0
    2.7069   -3.3199    0.0000 N   0  0  0  0  0  0  0  0  0  0  0  0
    2.1235   -2.7365    0.0000 C   0  0  0  0  0  0  0  0  0  0  0  0
    3.2903   -1.5698    0.0000 N   0  0  0  0  0  0  0  0  0  0  0  0
    4.0872   -1.7833    0.0000 C   0  0  0  0  0  0  0  0  0  0  0  0
    4.3007   -2.5802    0.0000 S   0  0  0  0  0  0  0  0  0  0  0  0
    4.6705   -1.2000    0.0000 C   0  0  0  0  0  0  0  0  0  0  0  0
    5.4674   -1.4135    0.0000 C   0  0  0  0  0  0  0  0  0  0  0  0
    6.0508   -0.8301    0.0000 C   0  0  0  0  0  0  0  0  0  0  0  0
    6.8477   -1.0436    0.0000 N   0  0  0  0  0  0  0  0  0  0  0  0
    7.0612   -1.8405    0.0000 C   0  0  0  0  0  0  0  0  0  0  0  0
    6.4778   -2.4239    0.0000 C   0  0  0  0  0  0  0  0  0  0  0  0
    5.6809   -2.2104    0.0000 C   0  0  0  0  0  0  0  0  0  0  0  0
  1  2  1  0  0  0  0
  2  3  1  0  0  0  0
  2  4  1  0  0  0  0
  2  5  1  0  0  0  0
  5  6  1  0  0  0  0
  6  7  1  0  0  0  0
  7  8  1  0  0  0  0
  5  8  1  0  0  0  0
  5  9  1  0  0  0  0
  9 10  1  0  0  0  0
 10 11  2  0  0  0  0
 10 12  1  0  0  0  0
 12 13  1  0  0  0  0
 13 14  2  0  0  0  0
 14 15  1  0  0  0  0
 15 16  2  0  0  0  0
 16 17  1  0  0  0  0
 17 18  2  0  0  0  0
 13 18  1  0  0  0  0
M  END
> <ID>
CPD_4562

$$$$
CPD_4567
  Mrv1822 09091914012D          

 33 37  0  0  0  0            999 V2000
   -1.6559   -5.6861    0.0000 C   0  0  0  0  0  0  0  0  0  0  0  0
   -1.4009   -4.9015    0.0000 N   0  0  0  0  0  0  0  0  0  0  0  0
   -1.8858   -4.2340    0.0000 C   0  0  0  0  0  0  0  0  0  0  0  0
   -2.7108   -4.2340    0.0000 O   0  0  0  0  0  0  0  0  0  0  0  0
   -1.4009   -3.5666    0.0000 C   0  0  0  0  0  0  0  0  0  0  0  0
   -2.1154   -3.1541    0.0000 C   0  0  0  0  0  0  0  0  0  0  0  0
   -2.1154   -2.3291    0.0000 C   0  0  0  0  0  0  0  0  0  0  0  0
   -1.4009   -1.9166    0.0000 O   0  0  0  0  0  0  0  0  0  0  0  0
   -2.8299   -1.9166    0.0000 C   0  0  0  0  0  0  0  0  0  0  0  0
   -2.8299   -1.0916    0.0000 C   0  0  0  0  0  0  0  0  0  0  0  0
   -3.5443   -0.6791    0.0000 C   0  0  0  0  0  0  0  0  0  0  0  0
   -4.2588   -1.0916    0.0000 C   0  0  0  0  0  0  0  0  0  0  0  0
   -4.9733   -0.6791    0.0000 O   0  0  0  0  0  0  0  0  0  0  0  0
   -4.9733    0.1459    0.0000 C   0  0  0  0  0  0  0  0  0  0  0  0
   -4.2588    0.5584    0.0000 C   0  0  0  0  0  0  0  0  0  0  0  0
   -3.5443    0.1459    0.0000 O   0  0  0  0  0  0  0  0  0  0  0  0
   -4.2588   -1.9166    0.0000 C   0  0  0  0  0  0  0  0  0  0  0  0
   -3.5443   -2.3291    0.0000 C   0  0  0  0  0  0  0  0  0  0  0  0
   -1.0654   -2.8129    0.0000 N   0  0  0  0  0  0  0  0  0  0  0  0
   -0.3117   -2.4774    0.0000 C   0  0  0  0  0  0  0  0  0  0  0  0
   -0.2255   -1.6569    0.0000 N   0  0  0  0  0  0  0  0  0  0  0  0
    0.5282   -1.3213    0.0000 C   0  0  0  0  0  0  0  0  0  0  0  0
    0.6145   -0.5008    0.0000 N   0  0  0  0  0  0  0  0  0  0  0  0
    1.1957   -1.8062    0.0000 N   0  0  0  0  0  0  0  0  0  0  0  0
    1.1094   -2.6267    0.0000 C   0  0  0  0  0  0  0  0  0  0  0  0
    1.7769   -3.1116    0.0000 N   0  0  0  0  0  0  0  0  0  0  0  0
    0.3557   -2.9623    0.0000 N   0  0  0  0  0  0  0  0  0  0  0  0
   -0.6163   -3.8215    0.0000 C   0  0  0  0  0  0  0  0  0  0  0  0
   -0.6163   -4.6465    0.0000 C   0  0  0  0  0  0  0  0  0  0  0  0
    0.0982   -5.0590    0.0000 C   0  0  0  0  0  0  0  0  0  0  0  0
    0.8126   -4.6465    0.0000 C   0  0  0  0  0  0  0  0  0  0  0  0
    0.8126   -3.8215    0.0000 C   0  0  0  0  0  0  0  0  0  0  0  0
    0.0982   -3.4090    0.0000 C   0  0  0  0  0  0  0  0  0  0  0  0
  1  2  1  0  0  0  0
  2  3  1  0  0  0  0
  3  4  2  0  0  0  0
  3  5  1  0  0  0  0
  5  6  1  0  0  0  0
  6  7  1  0  0  0  0
  7  8  2  0  0  0  0
  7  9  1  0  0  0  0
  9 10  2  0  0  0  0
 10 11  1  0  0  0  0
 11 12  2  0  0  0  0
 12 13  1  0  0  0  0
 13 14  1  0  0  0  0
 14 15  1  0  0  0  0
 15 16  1  0  0  0  0
 11 16  1  0  0  0  0
 12 17  1  0  0  0  0
 17 18  2  0  0  0  0
  9 18  1  0  0  0  0
  5 19  1  0  0  0  0
 19 20  1  0  0  0  0
 20 21  2  0  0  0  0
 21 22  1  0  0  0  0
 22 23  1  0  0  0  0
 22 24  2  0  0  0  0
 24 25  1  0  0  0  0
 25 26  1  0  0  0  0
 25 27  2  0  0  0  0
 20 27  1  0  0  0  0
  5 28  1  0  0  0  0
 28 29  2  0  0  0  0
  2 29  1  0  0  0  0
 29 30  1  0  0  0  0
 30 31  2  0  0  0  0
 31 32  1  0  0  0  0
 32 33  2  0  0  0  0
 28 33  1  0  0  0  0
M  END
> <ID>
CPD_4567

$$$$
CPD_4572
  Mrv1822 09091914012D          

 33 36  0  0  0  0            999 V2000
    2.0023   -4.3762    0.0000 C   0  0  0  0  0  0  0  0  0  0  0  0
    2.7168   -4.7887    0.0000 C   0  0  0  0  0  0  0  0  0  0  0  0
    3.4313   -4.3762    0.0000 O   0  0  0  0  0  0  0  0  0  0  0  0
    4.1458   -4.7887    0.0000 C   0  0  0  0  0  0  0  0  0  0  0  0
    4.1458   -5.6137    0.0000 O   0  0  0  0  0  0  0  0  0  0  0  0
    4.8602   -4.3762    0.0000 C   0  0  0  0  0  0  0  0  0  0  0  0
    4.8602   -3.5512    0.0000 C   0  0  0  0  0  0  0  0  0  0  0  0
    4.1458   -3.1387    0.0000 C   0  0  0  0  0  0  0  0  0  0  0  0
    5.5747   -4.7887    0.0000 O   0  0  0  0  0  0  0  0  0  0  0  0
    6.2892   -4.3762    0.0000 C   0  0  0  0  0  0  0  0  0  0  0  0
    6.6247   -5.1298    0.0000 C   0  0  0  0  0  0  0  0  0  0  0  0
    6.1398   -5.7973    0.0000 C   0  0  0  0  0  0  0  0  0  0  0  0
    5.3193   -5.7110    0.0000 O   0  0  0  0  0  0  0  0  0  0  0  0
    6.4754   -6.5510    0.0000 C   0  0  0  0  0  0  0  0  0  0  0  0
    5.9904   -7.2184    0.0000 C   0  0  0  0  0  0  0  0  0  0  0  0
    6.3260   -7.9721    0.0000 C   0  0  0  0  0  0  0  0  0  0  0  0
    7.1465   -8.0583    0.0000 C   0  0  0  0  0  0  0  0  0  0  0  0
    7.4820   -8.8120    0.0000 O   0  0  0  0  0  0  0  0  0  0  0  0
    6.9971   -9.4794    0.0000 C   0  0  0  0  0  0  0  0  0  0  0  0
    6.1766   -9.3932    0.0000 C   0  0  0  0  0  0  0  0  0  0  0  0
    5.8411   -8.6395    0.0000 O   0  0  0  0  0  0  0  0  0  0  0  0
    7.6314   -7.3909    0.0000 C   0  0  0  0  0  0  0  0  0  0  0  0
    7.2958   -6.6372    0.0000 C   0  0  0  0  0  0  0  0  0  0  0  0
    5.8042   -3.7087    0.0000 C   0  0  0  0  0  0  0  0  0  0  0  0
    5.1368   -3.2238    0.0000 O   0  0  0  0  0  0  0  0  0  0  0  0
    6.2892   -3.0413    0.0000 N   0  0  0  0  0  0  0  0  0  0  0  0
    6.0342   -2.2567    0.0000 C   0  0  0  0  0  0  0  0  0  0  0  0
    7.0738   -3.2962    0.0000 C   0  0  0  0  0  0  0  0  0  0  0  0
    7.0738   -4.1212    0.0000 C   0  0  0  0  0  0  0  0  0  0  0  0
    7.7883   -4.5337    0.0000 C   0  0  0  0  0  0  0  0  0  0  0  0
    8.5027   -4.1212    0.0000 C   0  0  0  0  0  0  0  0  0  0  0  0
    8.5027   -3.2962    0.0000 C   0  0  0  0  0  0  0  0  0  0  0  0
    7.7883   -2.8837    0.0000 C   0  0  0  0  0  0  0  0  0  0  0  0
  1  2  1  0  0  0  0
  2  3  1  0  0  0  0
  3  4  1  0  0  0  0
  4  5  2  0  0  0  0
  4  6  1  0  0  0  0
  6  7  1  0  0  0  0
  7  8  1  0  0  0  0
  6  9  1  0  0  0  0
  9 10  1  0  0  0  0
 10 11  1  0  0  0  0
 11 12  1  0  0  0  0
 12 13  2  0  0  0  0
 12 14  1  0  0  0  0
 14 15  2  0  0  0  0
 15 16  1  0  0  0  0
 16 17  2  0  0  0  0
 17 18  1  0  0  0  0
 18 19  1  0  0  0  0
 19 20  1  0  0  0  0
 20 21  1  0  0  0  0
 16 21  1  0  0  0  0
 17 22  1  0  0  0  0
 22 23  2  0  0  0  0
 14 23  1  0  0  0  0
 10 24  1  0  0  0  0
 24 25  2  0  0  0  0
 24 26  1  0  0  0  0
 26 27  1  0  0  0  0
 26 28  1  0  0  0  0
 28 29  2  0  0  0  0
 10 29  1  0  0  0  0
 29 30  1  0  0  0  0
 30 31  2  0  0  0  0
 31 32  1  0  0  0  0
 32 33  2  0  0  0  0
 28 33  1  0  0  0  0
M  END
> <ID>
CPD_4572

$$$$
CPD_4577
  Mrv1822 09091914012D          

 35 39  0  0  0  0            999 V2000
   -0.1014    2.1518    0.0000 C   0  0  0  0  0  0  0  0  0  0  0  0
    0.1536    1.3672    0.0000 C   0  0  0  0  0  0  0  0  0  0  0  0
   -0.3984    0.7541    0.0000 C   0  0  0  0  0  0  0  0  0  0  0  0
   -0.1435   -0.0305    0.0000 N   0  0  0  0  0  0  0  0  0  0  0  0
   -0.6284   -0.6979    0.0000 C   0  0  0  0  0  0  0  0  0  0  0  0
   -1.4534   -0.6979    0.0000 N   0  0  0  0  0  0  0  0  0  0  0  0
   -1.8659   -1.4124    0.0000 C   0  0  0  0  0  0  0  0  0  0  0  0
   -2.6909   -1.4124    0.0000 C   0  0  0  0  0  0  0  0  0  0  0  0
   -3.1034   -2.1269    0.0000 C   0  0  0  0  0  0  0  0  0  0  0  0
   -3.9284   -2.1269    0.0000 C   0  0  0  0  0  0  0  0  0  0  0  0
   -4.3409   -1.4124    0.0000 C   0  0  0  0  0  0  0  0  0  0  0  0
   -3.9284   -0.6979    0.0000 C   0  0  0  0  0  0  0  0  0  0  0  0
   -4.3409    0.0165    0.0000 C   0  0  0  0  0  0  0  0  0  0  0  0
   -3.1034   -0.6979    0.0000 C   0  0  0  0  0  0  0  0  0  0  0  0
   -2.6909   -2.8414    0.0000 N   0  0  0  0  0  0  0  0  0  0  0  0
   -1.8659   -2.8414    0.0000 C   0  0  0  0  0  0  0  0  0  0  0  0
   -1.4534   -3.5558    0.0000 C   0  0  0  0  0  0  0  0  0  0  0  0
   -1.8659   -4.2703    0.0000 C   0  0  0  0  0  0  0  0  0  0  0  0
   -2.6909   -4.2703    0.0000 C   0  0  0  0  0  0  0  0  0  0  0  0
   -3.1034   -3.5558    0.0000 C   0  0  0  0  0  0  0  0  0  0  0  0
   -3.9284   -3.5558    0.0000 C   0  0  0  0  0  0  0  0  0  0  0  0
   -4.4134   -4.2233    0.0000 N   0  0  0  0  0  0  0  0  0  0  0  0
   -5.1980   -3.9683    0.0000 C   0  0  0  0  0  0  0  0  0  0  0  0
   -5.8654   -4.4532    0.0000 C   0  0  0  0  0  0  0  0  0  0  0  0
   -6.6191   -4.1177    0.0000 O   0  0  0  0  0  0  0  0  0  0  0  0
   -7.2865   -4.6026    0.0000 C   0  0  0  0  0  0  0  0  0  0  0  0
   -5.1980   -3.1433    0.0000 N   0  0  0  0  0  0  0  0  0  0  0  0
   -4.4134   -2.8884    0.0000 O   0  0  0  0  0  0  0  0  0  0  0  0
   -0.1435   -1.3654    0.0000 N   0  0  0  0  0  0  0  0  0  0  0  0
    0.6411   -1.1104    0.0000 C   0  0  0  0  0  0  0  0  0  0  0  0
    0.6411   -0.2854    0.0000 C   0  0  0  0  0  0  0  0  0  0  0  0
    1.3556    0.1271    0.0000 C   0  0  0  0  0  0  0  0  0  0  0  0
    2.0701   -0.2854    0.0000 C   0  0  0  0  0  0  0  0  0  0  0  0
    2.0701   -1.1104    0.0000 C   0  0  0  0  0  0  0  0  0  0  0  0
    1.3556   -1.5229    0.0000 C   0  0  0  0  0  0  0  0  0  0  0  0
  1  2  1  0  0  0  0
  2  3  1  0  0  0  0
  3  4  1  0  0  0  0
  4  5  1  0  0  0  0
  5  6  1  0  0  0  0
  6  7  1  0  0  0  0
  7  8  1  0  0  0  0
  8  9  2  0  0  0  0
  9 10  1  0  0  0  0
 10 11  2  0  0  0  0
 11 12  1  0  0  0  0
 12 13  1  0  0  0  0
 12 14  2  0  0  0  0
  8 14  1  0  0  0  0
  9 15  1  0  0  0  0
 15 16  1  0  0  0  0
 16 17  1  0  0  0  0
 17 18  1  0  0  0  0
 18 19  1  0  0  0  0
 19 20  1  0  0  0  0
 15 20  1  0  0  0  0
 20 21  1  0  0  0  0
 21 22  2  0  0  0  0
 22 23  1  0  0  0  0
 23 24  1  0  0  0  0
 24 25  1  0  0  0  0
 25 26  1  0  0  0  0
 23 27  2  0  0  0  0
 27 28  1  0  0  0  0
 21 28  1  0  0  0  0
  5 29  2  0  0  0  0
 29 30  1  0  0  0  0
 30 31  2  0  0  0  0
  4 31  1  0  0  0  0
 31 32  1  0  0  0  0
 32 33  2  0  0  0  0
 33 34  1  0  0  0  0
 34 35  2  0  0  0  0
 30 35  1  0  0  0  0
M  END
> <ID>
CPD_4577

$$$$
CPD_4582
  Mrv1822 09091914012D          

 39 43  0  0  0  0            999 V2000
    2.8579    1.6500    0.0000 C   0  0  0  0  0  0  0  0  0  0  0  0
    2.1434    1.2375    0.0000 O   0  0  0  0  0  0  0  0  0  0  0  0
    2.1434    0.4125    0.0000 C   0  0  0  0  0  0  0  0  0  0  0  0
    2.8579   -0.0000    0.0000 C   0  0  0  0  0  0  0  0  0  0  0  0
    2.8579   -0.8250    0.0000 C   0  0  0  0  0  0  0  0  0  0  0  0
    2.1434   -1.2375    0.0000 C   0  0  0  0  0  0  0  0  0  0  0  0
    1.4289   -0.8250    0.0000 C   0  0  0  0  0  0  0  0  0  0  0  0
    1.4289   -0.0000    0.0000 C   0  0  0  0  0  0  0  0  0  0  0  0
    0.7145   -1.2375    0.0000 C   0  0  0  0  0  0  0  0  0  0  0  0
    0.1624   -0.6244    0.0000 C   0  0  0  0  0  0  0  0  0  0  0  0
    0.4174    0.1602    0.0000 C   0  0  0  0  0  0  0  0  0  0  0  0
   -0.1347    0.7733    0.0000 C   0  0  0  0  0  0  0  0  0  0  0  0
    0.1203    1.5579    0.0000 C   0  0  0  0  0  0  0  0  0  0  0  0
    0.9273    1.7295    0.0000 C   0  0  0  0  0  0  0  0  0  0  0  0
    1.1822    2.5141    0.0000 F   0  0  0  0  0  0  0  0  0  0  0  0
    1.4793    1.1164    0.0000 C   0  0  0  0  0  0  0  0  0  0  0  0
    1.2243    0.3317    0.0000 C   0  0  0  0  0  0  0  0  0  0  0  0
    0.0470   -1.7224    0.0000 N   0  0  0  0  0  0  0  0  0  0  0  0
    0.3020   -2.5070    0.0000 C   0  0  0  0  0  0  0  0  0  0  0  0
   -0.1830   -3.1745    0.0000 N   0  0  0  0  0  0  0  0  0  0  0  0
    1.1270   -2.5070    0.0000 N   0  0  0  0  0  0  0  0  0  0  0  0
    1.3819   -1.7224    0.0000 C   0  0  0  0  0  0  0  0  0  0  0  0
    2.2069   -1.7224    0.0000 O   0  0  0  0  0  0  0  0  0  0  0  0
   -0.7376   -1.4675    0.0000 C   0  0  0  0  0  0  0  0  0  0  0  0
   -1.3507   -2.0195    0.0000 C   0  0  0  0  0  0  0  0  0  0  0  0
   -1.1792   -2.8265    0.0000 N   0  0  0  0  0  0  0  0  0  0  0  0
   -1.7923   -3.3785    0.0000 C   0  0  0  0  0  0  0  0  0  0  0  0
   -2.5769   -3.1236    0.0000 O   0  0  0  0  0  0  0  0  0  0  0  0
   -1.6207   -4.1855    0.0000 C   0  0  0  0  0  0  0  0  0  0  0  0
   -2.1728   -4.7986    0.0000 C   0  0  0  0  0  0  0  0  0  0  0  0
   -1.7603   -5.5131    0.0000 C   0  0  0  0  0  0  0  0  0  0  0  0
   -0.9533   -5.3415    0.0000 C   0  0  0  0  0  0  0  0  0  0  0  0
   -0.8670   -4.5211    0.0000 S   0  0  0  0  0  0  0  0  0  0  0  0
   -2.1353   -1.7646    0.0000 C   0  0  0  0  0  0  0  0  0  0  0  0
   -2.3068   -0.9576    0.0000 C   0  0  0  0  0  0  0  0  0  0  0  0
   -3.0915   -0.7027    0.0000 C   0  0  0  0  0  0  0  0  0  0  0  0
   -1.6937   -0.4056    0.0000 C   0  0  0  0  0  0  0  0  0  0  0  0
   -1.8653    0.4014    0.0000 C   0  0  0  0  0  0  0  0  0  0  0  0
   -0.9091   -0.6605    0.0000 C   0  0  0  0  0  0  0  0  0  0  0  0
  1  2  1  0  0  0  0
  2  3  1  0  0  0  0
  3  4  2  0  0  0  0
  4  5  1  0  0  0  0
  5  6  2  0  0  0  0
  6  7  1  0  0  0  0
  7  8  2  0  0  0  0
  3  8  1  0  0  0  0
  7  9  1  0  0  0  0
  9 10  1  0  0  0  0
 10 11  1  0  0  0  0
 11 12  2  0  0  0  0
 12 13  1  0  0  0  0
 13 14  2  0  0  0  0
 14 15  1  0  0  0  0
 14 16  1  0  0  0  0
 16 17  2  0  0  0  0
 11 17  1  0  0  0  0
  9 18  1  0  0  0  0
 18 19  1  0  0  0  0
 19 20  1  0  0  0  0
 19 21  2  0  0  0  0
 21 22  1  0  0  0  0
  9 22  1  0  0  0  0
 22 23  2  0  0  0  0
 18 24  1  0  0  0  0
 24 25  2  0  0  0  0
 25 26  1  0  0  0  0
 26 27  1  0  0  0  0
 27 28  2  0  0  0  0
 27 29  1  0  0  0  0
 29 30  2  0  0  0  0
 30 31  1  0  0  0  0
 31 32  2  0  0  0  0
 32 33  1  0  0  0  0
 29 33  1  0  0  0  0
 25 34  1  0  0  0  0
 34 35  2  0  0  0  0
 35 36  1  0  0  0  0
 35 37  1  0  0  0  0
 37 38  1  0  0  0  0
 37 39  2  0  0  0  0
 24 39  1  0  0  0  0
M  END
> <ID>
CPD_4582

$$$$
CPD_4587
  Mrv1822 09091914012D          

 26 27  0  0  1  0            999 V2000
    0.0000   -2.4750    0.0000 C   0  0  0  0  0  0  0  0  0  0  0  0
    0.0000   -1.6500    0.0000 C   0  0  1  0  0  0  0  0  0  0  0  0
   -0.7145   -1.2375    0.0000 N   0  0  0  0  0  0  0  0  0  0  0  0
   -1.4289   -1.6500    0.0000 C   0  0  0  0  0  0  0  0  0  0  0  0
   -1.4289   -2.4750    0.0000 C   0  0  0  0  0  0  0  0  0  0  0  0
   -0.7145   -2.8875    0.0000 N   0  0  0  0  0  0  0  0  0  0  0  0
   -0.7145   -3.7125    0.0000 C   0  0  0  0  0  0  0  0  0  0  0  0
   -1.4289   -4.1250    0.0000 O   0  0  0  0  0  0  0  0  0  0  0  0
    0.0000   -4.1250    0.0000 C   0  0  0  0  0  0  0  0  0  0  0  0
    0.7537   -3.7894    0.0000 C   0  0  0  0  0  0  0  0  0  0  0  0
    1.3057   -4.4025    0.0000 C   0  0  0  0  0  0  0  0  0  0  0  0
    0.8932   -5.1170    0.0000 C   0  0  0  0  0  0  0  0  0  0  0  0
    0.0862   -4.9455    0.0000 S   0  0  0  0  0  0  0  0  0  0  0  0
   -2.1434   -2.8875    0.0000 C   0  0  0  0  0  0  0  0  0  0  0  0
   -2.8579   -2.4750    0.0000 C   0  0  0  0  0  0  0  0  0  0  0  0
   -3.5724   -2.8875    0.0000 C   0  0  0  0  0  0  0  0  0  0  0  0
   -2.8579   -1.6500    0.0000 C   0  0  0  0  0  0  0  0  0  0  0  0
   -3.5724   -1.2375    0.0000 C   0  0  0  0  0  0  0  0  0  0  0  0
   -2.1434   -1.2375    0.0000 C   0  0  0  0  0  0  0  0  0  0  0  0
    0.7145   -1.2375    0.0000 C   0  0  0  0  0  0  0  0  0  0  0  0
    0.7145   -0.4125    0.0000 O   0  0  0  0  0  0  0  0  0  0  0  0
    1.4289   -1.6500    0.0000 N   0  0  0  0  0  0  0  0  0  0  0  0
    2.1434   -1.2375    0.0000 C   0  0  0  0  0  0  0  0  0  0  0  0
    2.8579   -1.6500    0.0000 C   0  0  0  0  0  0  0  0  0  0  0  0
    3.5724   -1.2375    0.0000 O   0  0  0  0  0  0  0  0  0  0  0  0
    2.8579   -2.4750    0.0000 O   0  0  0  0  0  0  0  0  0  0  0  0
  2  1  1  1  0  0  0
  2  3  1  0  0  0  0
  3  4  1  0  0  0  0
  4  5  2  0  0  0  0
  5  6  1  0  0  0  0
  6  7  1  0  0  0  0
  7  8  2  0  0  0  0
  7  9  1  0  0  0  0
  9 10  2  0  0  0  0
 10 11  1  0  0  0  0
 11 12  2  0  0  0  0
 12 13  1  0  0  0  0
  9 13  1  0  0  0  0
  5 14  1  0  0  0  0
 14 15  2  0  0  0  0
 15 16  1  0  0  0  0
 15 17  1  0  0  0  0
 17 18  1  0  0  0  0
 17 19  2  0  0  0  0
  4 19  1  0  0  0  0
  2 20  1  0  0  0  0
 20 21  2  0  0  0  0
 20 22  1  0  0  0  0
 22 23  1  0  0  0  0
 23 24  1  0  0  0  0
 24 25  1  0  0  0  0
 24 26  2  0  0  0  0
M  END
> <ID>
CPD_4587

$$$$
CPD_4592
  Mrv1822 09091914012D          

 22 24  0  0  0  0            999 V2000
   -0.7145    8.4161    0.0000 C   0  0  0  0  0  0  0  0  0  0  0  0
   -0.0000    8.0036    0.0000 O   0  0  0  0  0  0  0  0  0  0  0  0
   -0.0000    7.1786    0.0000 C   0  0  0  0  0  0  0  0  0  0  0  0
   -0.7145    6.7661    0.0000 O   0  0  0  0  0  0  0  0  0  0  0  0
    0.7145    6.7661    0.0000 C   0  0  0  0  0  0  0  0  0  0  0  0
    1.4289    7.1786    0.0000 N   0  0  0  0  0  0  0  0  0  0  0  0
    0.7145    5.9411    0.0000 C   0  0  0  0  0  0  0  0  0  0  0  0
    1.4289    5.5286    0.0000 C   0  0  0  0  0  0  0  0  0  0  0  0
    1.4289    4.7036    0.0000 C   0  0  0  0  0  0  0  0  0  0  0  0
    0.7145    4.2911    0.0000 C   0  0  0  0  0  0  0  0  0  0  0  0
    0.0000    4.7036    0.0000 C   0  0  0  0  0  0  0  0  0  0  0  0
   -0.0000    5.5286    0.0000 C   0  0  0  0  0  0  0  0  0  0  0  0
    0.7145    3.4661    0.0000 N   0  0  0  0  0  0  0  0  0  0  0  0
    1.3819    2.9812    0.0000 C   0  0  0  0  0  0  0  0  0  0  0  0
    1.1270    2.1965    0.0000 C   0  0  0  0  0  0  0  0  0  0  0  0
    0.3020    2.1965    0.0000 C   0  0  0  0  0  0  0  0  0  0  0  0
    0.0470    2.9812    0.0000 C   0  0  0  0  0  0  0  0  0  0  0  0
   -0.7376    3.2361    0.0000 C   0  0  0  0  0  0  0  0  0  0  0  0
   -1.4050    2.7512    0.0000 C   0  0  0  0  0  0  0  0  0  0  0  0
   -2.0725    3.2361    0.0000 C   0  0  0  0  0  0  0  0  0  0  0  0
   -1.8175    4.0207    0.0000 C   0  0  0  0  0  0  0  0  0  0  0  0
   -0.9925    4.0207    0.0000 S   0  0  0  0  0  0  0  0  0  0  0  0
  1  2  1  0  0  0  0
  2  3  1  0  0  0  0
  3  4  2  0  0  0  0
  3  5  1  0  0  0  0
  5  6  1  0  0  0  0
  5  7  1  0  0  0  0
  7  8  2  0  0  0  0
  8  9  1  0  0  0  0
  9 10  2  0  0  0  0
 10 11  1  0  0  0  0
 11 12  2  0  0  0  0
  7 12  1  0  0  0  0
 10 13  1  0  0  0  0
 13 14  1  0  0  0  0
 14 15  1  0  0  0  0
 15 16  1  0  0  0  0
 16 17  1  0  0  0  0
 13 17  1  0  0  0  0
 17 18  1  0  0  0  0
 18 19  2  0  0  0  0
 19 20  1  0  0  0  0
 20 21  2  0  0  0  0
 21 22  1  0  0  0  0
 18 22  1  0  0  0  0
M  END
> <ID>
CPD_4592

$$$$
CPD_4597
  Mrv1822 09091914012D          

 30 32  0  0  0  0            999 V2000
   -2.2501    1.8777    0.0000 C   0  0  0  0  0  0  0  0  0  0  0  0
   -1.5356    2.2902    0.0000 O   0  0  0  0  0  0  0  0  0  0  0  0
   -0.8212    1.8777    0.0000 C   0  0  0  0  0  0  0  0  0  0  0  0
   -0.8212    1.0527    0.0000 O   0  0  0  0  0  0  0  0  0  0  0  0
   -0.1067    2.2902    0.0000 C   0  0  0  0  0  0  0  0  0  0  0  0
   -0.1067    3.1152    0.0000 N   0  0  0  0  0  0  0  0  0  0  0  0
    0.6078    1.8777    0.0000 C   0  0  0  0  0  0  0  0  0  0  0  0
    1.3222    2.2902    0.0000 C   0  0  0  0  0  0  0  0  0  0  0  0
    2.0367    1.8777    0.0000 C   0  0  0  0  0  0  0  0  0  0  0  0
    2.0367    1.0527    0.0000 C   0  0  0  0  0  0  0  0  0  0  0  0
    1.3222    0.6402    0.0000 C   0  0  0  0  0  0  0  0  0  0  0  0
    0.6078    1.0527    0.0000 C   0  0  0  0  0  0  0  0  0  0  0  0
    2.7512    0.6402    0.0000 N   0  0  0  0  0  0  0  0  0  0  0  0
    3.4656    1.0527    0.0000 C   0  0  0  0  0  0  0  0  0  0  0  0
    4.1801    0.6402    0.0000 C   0  0  0  0  0  0  0  0  0  0  0  0
    4.8946    1.0527    0.0000 C   0  0  0  0  0  0  0  0  0  0  0  0
    5.6091    0.6402    0.0000 C   0  0  0  0  0  0  0  0  0  0  0  0
    5.6091   -0.1848    0.0000 C   0  0  0  0  0  0  0  0  0  0  0  0
    6.3235   -0.5973    0.0000 O   0  0  0  0  0  0  0  0  0  0  0  0
    7.0380   -0.1848    0.0000 C   0  0  0  0  0  0  0  0  0  0  0  0
    4.8946   -0.5973    0.0000 C   0  0  0  0  0  0  0  0  0  0  0  0
    4.8946   -1.4223    0.0000 O   0  0  0  0  0  0  0  0  0  0  0  0
    4.1801   -0.1848    0.0000 C   0  0  0  0  0  0  0  0  0  0  0  0
    2.7512   -0.1848    0.0000 C   0  0  0  0  0  0  0  0  0  0  0  0
    2.0837   -0.6697    0.0000 C   0  0  0  0  0  0  0  0  0  0  0  0
    1.2991   -0.4148    0.0000 C   0  0  0  0  0  0  0  0  0  0  0  0
    2.3387   -1.4544    0.0000 N   0  0  0  0  0  0  0  0  0  0  0  0
    1.8538   -2.1218    0.0000 C   0  0  0  0  0  0  0  0  0  0  0  0
    3.1637   -1.4544    0.0000 N   0  0  0  0  0  0  0  0  0  0  0  0
    3.4186   -0.6697    0.0000 C   0  0  0  0  0  0  0  0  0  0  0  0
  1  2  1  0  0  0  0
  2  3  1  0  0  0  0
  3  4  2  0  0  0  0
  3  5  1  0  0  0  0
  5  6  1  0  0  0  0
  5  7  1  0  0  0  0
  7  8  2  0  0  0  0
  8  9  1  0  0  0  0
  9 10  2  0  0  0  0
 10 11  1  0  0  0  0
 11 12  2  0  0  0  0
  7 12  1  0  0  0  0
 10 13  1  0  0  0  0
 13 14  1  0  0  0  0
 14 15  1  0  0  0  0
 15 16  2  0  0  0  0
 16 17  1  0  0  0  0
 17 18  2  0  0  0  0
 18 19  1  0  0  0  0
 19 20  1  0  0  0  0
 18 21  1  0  0  0  0
 21 22  1  0  0  0  0
 21 23  2  0  0  0  0
 15 23  1  0  0  0  0
 13 24  1  0  0  0  0
 24 25  2  0  0  0  0
 25 26  1  0  0  0  0
 25 27  1  0  0  0  0
 27 28  1  0  0  0  0
 27 29  1  0  0  0  0
 29 30  2  0  0  0  0
 24 30  1  0  0  0  0
M  END
> <ID>
CPD_4597

$$$$
CPD_4602
  Mrv1822 09091914012D          

 31 35  0  0  0  0            999 V2000
   -3.6944    3.5322    0.0000 C   0  0  0  0  0  0  0  0  0  0  0  0
   -2.9800    3.1197    0.0000 N   0  0  0  0  0  0  0  0  0  0  0  0
   -2.8937    2.2992    0.0000 C   0  0  0  0  0  0  0  0  0  0  0  0
   -2.0867    2.1277    0.0000 C   0  0  0  0  0  0  0  0  0  0  0  0
   -1.6742    2.8422    0.0000 C   0  0  0  0  0  0  0  0  0  0  0  0
   -2.2263    3.4552    0.0000 N   0  0  0  0  0  0  0  0  0  0  0  0
   -1.7512    1.3740    0.0000 C   0  0  0  0  0  0  0  0  0  0  0  0
   -2.1637    0.6595    0.0000 C   0  0  0  0  0  0  0  0  0  0  0  0
   -1.6117    0.0464    0.0000 C   0  0  0  0  0  0  0  0  0  0  0  0
   -0.8580    0.3820    0.0000 N   0  0  0  0  0  0  0  0  0  0  0  0
   -0.9442    1.2025    0.0000 C   0  0  0  0  0  0  0  0  0  0  0  0
   -0.1435   -0.0305    0.0000 C   0  0  0  0  0  0  0  0  0  0  0  0
    0.1921    0.7232    0.0000 C   0  0  0  0  0  0  0  0  0  0  0  0
    1.0125    0.8094    0.0000 C   0  0  0  0  0  0  0  0  0  0  0  0
    1.6800    0.3245    0.0000 O   0  0  0  0  0  0  0  0  0  0  0  0
    1.3481    1.5631    0.0000 C   0  0  0  0  0  0  0  0  0  0  0  0
    0.8632    2.2305    0.0000 C   0  0  0  0  0  0  0  0  0  0  0  0
    1.1987    2.9842    0.0000 C   0  0  0  0  0  0  0  0  0  0  0  0
    2.0192    3.0704    0.0000 N   0  0  0  0  0  0  0  0  0  0  0  0
    2.5041    2.4030    0.0000 C   0  0  0  0  0  0  0  0  0  0  0  0
    2.1686    1.6493    0.0000 C   0  0  0  0  0  0  0  0  0  0  0  0
   -0.6284   -0.6979    0.0000 C   0  0  0  0  0  0  0  0  0  0  0  0
   -1.4534   -0.6979    0.0000 O   0  0  0  0  0  0  0  0  0  0  0  0
   -0.1435   -1.3654    0.0000 N   0  0  0  0  0  0  0  0  0  0  0  0
   -0.3984   -2.1500    0.0000 C   0  0  0  0  0  0  0  0  0  0  0  0
    0.6411   -1.1104    0.0000 C   0  0  0  0  0  0  0  0  0  0  0  0
    0.6411   -0.2854    0.0000 C   0  0  0  0  0  0  0  0  0  0  0  0
    1.3556    0.1271    0.0000 C   0  0  0  0  0  0  0  0  0  0  0  0
    2.0701   -0.2854    0.0000 C   0  0  0  0  0  0  0  0  0  0  0  0
    2.0701   -1.1104    0.0000 C   0  0  0  0  0  0  0  0  0  0  0  0
    1.3556   -1.5229    0.0000 C   0  0  0  0  0  0  0  0  0  0  0  0
  1  2  1  0  0  0  0
  2  3  1  0  0  0  0
  3  4  2  0  0  0  0
  4  5  1  0  0  0  0
  5  6  2  0  0  0  0
  2  6  1  0  0  0  0
  4  7  1  0  0  0  0
  7  8  1  0  0  0  0
  8  9  1  0  0  0  0
  9 10  1  0  0  0  0
 10 11  1  0  0  0  0
  7 11  1  0  0  0  0
 10 12  1  0  0  0  0
 12 13  1  0  0  0  0
 13 14  1  0  0  0  0
 14 15  2  0  0  0  0
 14 16  1  0  0  0  0
 16 17  2  0  0  0  0
 17 18  1  0  0  0  0
 18 19  2  0  0  0  0
 19 20  1  0  0  0  0
 20 21  2  0  0  0  0
 16 21  1  0  0  0  0
 12 22  1  0  0  0  0
 22 23  2  0  0  0  0
 22 24  1  0  0  0  0
 24 25  1  0  0  0  0
 24 26  1  0  0  0  0
 26 27  2  0  0  0  0
 12 27  1  0  0  0  0
 27 28  1  0  0  0  0
 28 29  2  0  0  0  0
 29 30  1  0  0  0  0
 30 31  2  0  0  0  0
 26 31  1  0  0  0  0
M  END
> <ID>
CPD_4602

$$$$
CPD_4607
  Mrv1822 09091914012D          

 28 30  0  0  0  0            999 V2000
   -2.7565   -3.4395    0.0000 C   0  0  0  0  0  0  0  0  0  0  0  0
   -2.0420   -3.0270    0.0000 O   0  0  0  0  0  0  0  0  0  0  0  0
   -2.0420   -2.2020    0.0000 C   0  0  0  0  0  0  0  0  0  0  0  0
   -2.7565   -1.7895    0.0000 O   0  0  0  0  0  0  0  0  0  0  0  0
   -1.3276   -1.7895    0.0000 C   0  0  0  0  0  0  0  0  0  0  0  0
   -0.6131   -2.2020    0.0000 C   0  0  0  0  0  0  0  0  0  0  0  0
   -0.6131   -3.0270    0.0000 C   0  0  0  0  0  0  0  0  0  0  0  0
   -0.6131   -3.8520    0.0000 N   0  0  0  0  0  0  0  0  0  0  0  0
   -1.3276   -0.9645    0.0000 O   0  0  0  0  0  0  0  0  0  0  0  0
   -0.6131   -0.5520    0.0000 C   0  0  0  0  0  0  0  0  0  0  0  0
   -1.0980    0.1154    0.0000 C   0  0  0  0  0  0  0  0  0  0  0  0
   -1.9185    0.0292    0.0000 C   0  0  0  0  0  0  0  0  0  0  0  0
   -2.2541   -0.7245    0.0000 O   0  0  0  0  0  0  0  0  0  0  0  0
   -2.4034    0.6966    0.0000 C   0  0  0  0  0  0  0  0  0  0  0  0
   -2.1485    1.4812    0.0000 C   0  0  0  0  0  0  0  0  0  0  0  0
   -2.8159    1.9662    0.0000 C   0  0  0  0  0  0  0  0  0  0  0  0
   -3.4834    1.4812    0.0000 C   0  0  0  0  0  0  0  0  0  0  0  0
   -3.2284    0.6966    0.0000 O   0  0  0  0  0  0  0  0  0  0  0  0
   -0.2775   -1.3057    0.0000 C   0  0  0  0  0  0  0  0  0  0  0  0
   -0.1913   -2.1262    0.0000 O   0  0  0  0  0  0  0  0  0  0  0  0
    0.5429   -1.2195    0.0000 N   0  0  0  0  0  0  0  0  0  0  0  0
    0.7145   -0.4125    0.0000 C   0  0  0  0  0  0  0  0  0  0  0  0
    0.0000   -0.0000    0.0000 C   0  0  0  0  0  0  0  0  0  0  0  0
    0.0000    0.8250    0.0000 C   0  0  0  0  0  0  0  0  0  0  0  0
    0.7145    1.2375    0.0000 C   0  0  0  0  0  0  0  0  0  0  0  0
    0.7145    2.0625    0.0000 Cl  0  0  0  0  0  0  0  0  0  0  0  0
    1.4289    0.8250    0.0000 C   0  0  0  0  0  0  0  0  0  0  0  0
    1.4289   -0.0000    0.0000 C   0  0  0  0  0  0  0  0  0  0  0  0
  1  2  1  0  0  0  0
  2  3  1  0  0  0  0
  3  4  2  0  0  0  0
  3  5  1  0  0  0  0
  5  6  1  0  0  0  0
  6  7  1  0  0  0  0
  7  8  3  0  0  0  0
  5  9  1  0  0  0  0
  9 10  1  0  0  0  0
 10 11  1  0  0  0  0
 11 12  1  0  0  0  0
 12 13  2  0  0  0  0
 12 14  1  0  0  0  0
 14 15  2  0  0  0  0
 15 16  1  0  0  0  0
 16 17  2  0  0  0  0
 17 18  1  0  0  0  0
 14 18  1  0  0  0  0
 10 19  1  0  0  0  0
 19 20  2  0  0  0  0
 19 21  1  0  0  0  0
 21 22  1  0  0  0  0
 22 23  2  0  0  0  0
 10 23  1  0  0  0  0
 23 24  1  0  0  0  0
 24 25  2  0  0  0  0
 25 26  1  0  0  0  0
 25 27  1  0  0  0  0
 27 28  2  0  0  0  0
 22 28  1  0  0  0  0
M  END
> <ID>
CPD_4607

$$$$
CPD_4612
  Mrv1822 09091914012D          

 38 42  0  0  0  0            999 V2000
    0.1957    3.5496    0.0000 C   0  0  0  0  0  0  0  0  0  0  0  0
    0.4507    2.7649    0.0000 C   0  0  0  0  0  0  0  0  0  0  0  0
   -0.1014    2.1518    0.0000 O   0  0  0  0  0  0  0  0  0  0  0  0
    0.1536    1.3672    0.0000 C   0  0  0  0  0  0  0  0  0  0  0  0
    0.9606    1.1957    0.0000 O   0  0  0  0  0  0  0  0  0  0  0  0
   -0.3984    0.7541    0.0000 C   0  0  0  0  0  0  0  0  0  0  0  0
   -0.1435   -0.0305    0.0000 N   0  0  0  0  0  0  0  0  0  0  0  0
   -0.6284   -0.6979    0.0000 C   0  0  0  0  0  0  0  0  0  0  0  0
   -1.2959   -0.2130    0.0000 O   0  0  0  0  0  0  0  0  0  0  0  0
   -0.1435   -1.3654    0.0000 C   0  0  0  0  0  0  0  0  0  0  0  0
    0.1921   -2.1191    0.0000 C   0  0  0  0  0  0  0  0  0  0  0  0
   -0.2929   -2.7865    0.0000 C   0  0  0  0  0  0  0  0  0  0  0  0
   -1.1134   -2.7003    0.0000 O   0  0  0  0  0  0  0  0  0  0  0  0
    0.0427   -3.5402    0.0000 C   0  0  0  0  0  0  0  0  0  0  0  0
    0.8632   -3.6264    0.0000 C   0  0  0  0  0  0  0  0  0  0  0  0
    1.1987   -4.3801    0.0000 C   0  0  0  0  0  0  0  0  0  0  0  0
    0.7138   -5.0475    0.0000 N   0  0  0  0  0  0  0  0  0  0  0  0
   -0.1067   -4.9613    0.0000 C   0  0  0  0  0  0  0  0  0  0  0  0
   -0.4422   -4.2076    0.0000 C   0  0  0  0  0  0  0  0  0  0  0  0
   -0.8580   -1.7779    0.0000 N   0  0  0  0  0  0  0  0  0  0  0  0
   -1.5724   -1.3654    0.0000 C   0  0  0  0  0  0  0  0  0  0  0  0
   -2.2869   -1.7779    0.0000 C   0  0  0  0  0  0  0  0  0  0  0  0
   -3.0014   -1.3654    0.0000 C   0  0  0  0  0  0  0  0  0  0  0  0
   -3.0014   -0.5404    0.0000 C   0  0  0  0  0  0  0  0  0  0  0  0
   -2.2869   -0.1279    0.0000 C   0  0  0  0  0  0  0  0  0  0  0  0
   -1.5724   -0.5404    0.0000 C   0  0  0  0  0  0  0  0  0  0  0  0
   -3.7159   -1.7779    0.0000 C   0  0  0  0  0  0  0  0  0  0  0  0
   -3.7159   -2.6029    0.0000 C   0  0  0  0  0  0  0  0  0  0  0  0
   -4.4303   -3.0154    0.0000 C   0  0  0  0  0  0  0  0  0  0  0  0
   -5.1448   -2.6029    0.0000 C   0  0  0  0  0  0  0  0  0  0  0  0
   -5.1448   -1.7779    0.0000 C   0  0  0  0  0  0  0  0  0  0  0  0
   -4.4303   -1.3654    0.0000 C   0  0  0  0  0  0  0  0  0  0  0  0
    0.6411   -1.1104    0.0000 C   0  0  0  0  0  0  0  0  0  0  0  0
    0.6411   -0.2854    0.0000 C   0  0  0  0  0  0  0  0  0  0  0  0
    1.3556    0.1271    0.0000 C   0  0  0  0  0  0  0  0  0  0  0  0
    2.0701   -0.2854    0.0000 C   0  0  0  0  0  0  0  0  0  0  0  0
    2.0701   -1.1104    0.0000 C   0  0  0  0  0  0  0  0  0  0  0  0
    1.3556   -1.5229    0.0000 C   0  0  0  0  0  0  0  0  0  0  0  0
  1  2  1  0  0  0  0
  2  3  1  0  0  0  0
  3  4  1  0  0  0  0
  4  5  2  0  0  0  0
  4  6  1  0  0  0  0
  6  7  1  0  0  0  0
  7  8  1  0  0  0  0
  8  9  2  0  0  0  0
  8 10  1  0  0  0  0
 10 11  1  0  0  0  0
 11 12  1  0  0  0  0
 12 13  2  0  0  0  0
 12 14  1  0  0  0  0
 14 15  2  0  0  0  0
 15 16  1  0  0  0  0
 16 17  2  0  0  0  0
 17 18  1  0  0  0  0
 18 19  2  0  0  0  0
 14 19  1  0  0  0  0
 10 20  1  0  0  0  0
 20 21  1  0  0  0  0
 21 22  2  0  0  0  0
 22 23  1  0  0  0  0
 23 24  2  0  0  0  0
 24 25  1  0  0  0  0
 25 26  2  0  0  0  0
 21 26  1  0  0  0  0
 23 27  1  0  0  0  0
 27 28  2  0  0  0  0
 28 29  1  0  0  0  0
 29 30  2  0  0  0  0
 30 31  1  0  0  0  0
 31 32  2  0  0  0  0
 27 32  1  0  0  0  0
 10 33  1  0  0  0  0
 33 34  2  0  0  0  0
  7 34  1  0  0  0  0
 34 35  1  0  0  0  0
 35 36  2  0  0  0  0
 36 37  1  0  0  0  0
 37 38  2  0  0  0  0
 33 38  1  0  0  0  0
M  END
> <ID>
CPD_4612

$$$$
CPD_4617
  Mrv1822 09091914012D          

 22 25  0  0  0  0            999 V2000
   -0.8511    3.1743    0.0000 C   0  0  0  0  0  0  0  0  0  0  0  0
   -0.5961    2.3897    0.0000 C   0  0  0  0  0  0  0  0  0  0  0  0
    0.2109    2.2182    0.0000 C   0  0  0  0  0  0  0  0  0  0  0  0
    0.4658    1.4336    0.0000 C   0  0  0  0  0  0  0  0  0  0  0  0
   -0.0862    0.8205    0.0000 C   0  0  0  0  0  0  0  0  0  0  0  0
   -0.8932    0.9920    0.0000 C   0  0  0  0  0  0  0  0  0  0  0  0
   -1.1481    1.7766    0.0000 C   0  0  0  0  0  0  0  0  0  0  0  0
   -1.3057    0.2775    0.0000 S   0  0  0  0  0  0  0  0  0  0  0  0
   -0.7537   -0.3356    0.0000 C   0  0  0  0  0  0  0  0  0  0  0  0
   -0.9252   -1.1425    0.0000 N   0  0  0  0  0  0  0  0  0  0  0  0
    0.0000    0.0000    0.0000 C   0  0  0  0  0  0  0  0  0  0  0  0
    0.7145   -0.4125    0.0000 C   0  0  0  0  0  0  0  0  0  0  0  0
    1.4289    0.0000    0.0000 N   0  0  0  0  0  0  0  0  0  0  0  0
    2.1434   -0.4125    0.0000 C   0  0  0  0  0  0  0  0  0  0  0  0
    2.8579    0.0000    0.0000 C   0  0  0  0  0  0  0  0  0  0  0  0
    3.5724   -0.4125    0.0000 C   0  0  0  0  0  0  0  0  0  0  0  0
    3.5724   -1.2375    0.0000 C   0  0  0  0  0  0  0  0  0  0  0  0
    2.8579   -1.6500    0.0000 C   0  0  0  0  0  0  0  0  0  0  0  0
    2.1434   -1.2375    0.0000 C   0  0  0  0  0  0  0  0  0  0  0  0
    1.4289   -1.6500    0.0000 C   0  0  0  0  0  0  0  0  0  0  0  0
    1.4289   -2.4750    0.0000 O   0  0  0  0  0  0  0  0  0  0  0  0
    0.7145   -1.2375    0.0000 N   0  0  0  0  0  0  0  0  0  0  0  0
  1  2  1  0  0  0  0
  2  3  1  0  0  0  0
  3  4  1  0  0  0  0
  4  5  1  0  0  0  0
  5  6  2  0  0  0  0
  6  7  1  0  0  0  0
  2  7  1  0  0  0  0
  6  8  1  0  0  0  0
  8  9  1  0  0  0  0
  9 10  1  0  0  0  0
  9 11  2  0  0  0  0
  5 11  1  0  0  0  0
 11 12  1  0  0  0  0
 12 13  2  0  0  0  0
 13 14  1  0  0  0  0
 14 15  2  0  0  0  0
 15 16  1  0  0  0  0
 16 17  2  0  0  0  0
 17 18  1  0  0  0  0
 18 19  2  0  0  0  0
 14 19  1  0  0  0  0
 19 20  1  0  0  0  0
 20 21  2  0  0  0  0
 20 22  1  0  0  0  0
 12 22  1  0  0  0  0
M  END
> <ID>
CPD_4617

$$$$
CPD_4622
  Mrv1822 09091914012D          

 26 29  0  0  0  0            999 V2000
   -2.8579   -1.6500    0.0000 C   0  0  0  0  0  0  0  0  0  0  0  0
   -2.1434   -1.2375    0.0000 N   0  0  0  0  0  0  0  0  0  0  0  0
   -2.1434   -0.4125    0.0000 C   0  0  0  0  0  0  0  0  0  0  0  0
   -1.4289    0.0000    0.0000 C   0  0  0  0  0  0  0  0  0  0  0  0
   -0.7145   -0.4125    0.0000 N   0  0  0  0  0  0  0  0  0  0  0  0
   -0.7145   -1.2375    0.0000 C   0  0  0  0  0  0  0  0  0  0  0  0
   -1.4289   -1.6500    0.0000 C   0  0  0  0  0  0  0  0  0  0  0  0
    0.0000    0.0000    0.0000 C   0  0  0  0  0  0  0  0  0  0  0  0
    0.0000    0.8250    0.0000 C   0  0  0  0  0  0  0  0  0  0  0  0
   -0.7145    1.2375    0.0000 C   0  0  0  0  0  0  0  0  0  0  0  0
   -0.7145    2.0625    0.0000 C   0  0  0  0  0  0  0  0  0  0  0  0
    0.0000    2.4750    0.0000 C   0  0  0  0  0  0  0  0  0  0  0  0
    0.0000    3.3000    0.0000 Cl  0  0  0  0  0  0  0  0  0  0  0  0
    0.7145    2.0625    0.0000 C   0  0  0  0  0  0  0  0  0  0  0  0
    0.7145    1.2375    0.0000 C   0  0  0  0  0  0  0  0  0  0  0  0
    0.7145   -0.4125    0.0000 C   0  0  0  0  0  0  0  0  0  0  0  0
    1.4289    0.0000    0.0000 N   0  0  0  0  0  0  0  0  0  0  0  0
    2.1434   -0.4125    0.0000 C   0  0  0  0  0  0  0  0  0  0  0  0
    2.8579    0.0000    0.0000 C   0  0  0  0  0  0  0  0  0  0  0  0
    3.5724   -0.4125    0.0000 C   0  0  0  0  0  0  0  0  0  0  0  0
    3.5724   -1.2375    0.0000 C   0  0  0  0  0  0  0  0  0  0  0  0
    2.8579   -1.6500    0.0000 C   0  0  0  0  0  0  0  0  0  0  0  0
    2.1434   -1.2375    0.0000 C   0  0  0  0  0  0  0  0  0  0  0  0
    1.4289   -1.6500    0.0000 C   0  0  0  0  0  0  0  0  0  0  0  0
    1.4289   -2.4750    0.0000 O   0  0  0  0  0  0  0  0  0  0  0  0
    0.7145   -1.2375    0.0000 N   0  0  0  0  0  0  0  0  0  0  0  0
  1  2  1  0  0  0  0
  2  3  1  0  0  0  0
  3  4  1  0  0  0  0
  4  5  1  0  0  0  0
  5  6  1  0  0  0  0
  6  7  1  0  0  0  0
  2  7  1  0  0  0  0
  5  8  1  0  0  0  0
  8  9  1  0  0  0  0
  9 10  2  0  0  0  0
 10 11  1  0  0  0  0
 11 12  2  0  0  0  0
 12 13  1  0  0  0  0
 12 14  1  0  0  0  0
 14 15  2  0  0  0  0
  9 15  1  0  0  0  0
  8 16  1  0  0  0  0
 16 17  2  0  0  0  0
 17 18  1  0  0  0  0
 18 19  2  0  0  0  0
 19 20  1  0  0  0  0
 20 21  2  0  0  0  0
 21 22  1  0  0  0  0
 22 23  2  0  0  0  0
 18 23  1  0  0  0  0
 23 24  1  0  0  0  0
 24 25  2  0  0  0  0
 24 26  1  0  0  0  0
 16 26  1  0  0  0  0
M  END
> <ID>
CPD_4622

$$$$
CPD_4627
  Mrv1822 09091914012D          

 33 36  0  0  0  0            999 V2000
    6.0916   -0.1820    0.0000 C   0  0  0  0  0  0  0  0  0  0  0  0
    5.2907    0.0162    0.0000 C   0  0  0  0  0  0  0  0  0  0  0  0
    5.4889    0.8170    0.0000 C   0  0  0  0  0  0  0  0  0  0  0  0
    5.0926   -0.7847    0.0000 C   0  0  0  0  0  0  0  0  0  0  0  0
    4.4899    0.2143    0.0000 C   0  0  0  0  0  0  0  0  0  0  0  0
    3.9179   -0.3801    0.0000 C   0  0  0  0  0  0  0  0  0  0  0  0
    3.1170   -0.1820    0.0000 C   0  0  0  0  0  0  0  0  0  0  0  0
    2.8882    0.6107    0.0000 C   0  0  0  0  0  0  0  0  0  0  0  0
    3.4602    1.2051    0.0000 C   0  0  0  0  0  0  0  0  0  0  0  0
    4.2611    1.0070    0.0000 C   0  0  0  0  0  0  0  0  0  0  0  0
    2.6594    1.4033    0.0000 C   0  0  0  0  0  0  0  0  0  0  0  0
    1.8585    1.6015    0.0000 C   0  0  0  0  0  0  0  0  0  0  0  0
    1.6297    2.3941    0.0000 O   0  0  0  0  0  0  0  0  0  0  0  0
    1.2865    1.0070    0.0000 C   0  0  0  0  0  0  0  0  0  0  0  0
    1.5153    0.2143    0.0000 C   0  0  0  0  0  0  0  0  0  0  0  0
    2.3162    0.0162    0.0000 O   0  0  0  0  0  0  0  0  0  0  0  0
    0.9433   -0.3801    0.0000 C   0  0  0  0  0  0  0  0  0  0  0  0
    0.1424   -0.1820    0.0000 C   0  0  0  0  0  0  0  0  0  0  0  0
   -0.4296   -0.7765    0.0000 O   0  0  0  0  0  0  0  0  0  0  0  0
   -0.2008   -1.5691    0.0000 C   0  0  0  0  0  0  0  0  0  0  0  0
   -0.7728   -2.1636    0.0000 C   0  0  0  0  0  0  0  0  0  0  0  0
   -1.5737   -1.9654    0.0000 O   0  0  0  0  0  0  0  0  0  0  0  0
   -0.5440   -2.9562    0.0000 O   0  0  0  0  0  0  0  0  0  0  0  0
   -1.1160   -3.5507    0.0000 C   0  0  0  0  0  0  0  0  0  0  0  0
   -0.8872   -4.3433    0.0000 C   0  0  0  0  0  0  0  0  0  0  0  0
   -1.4593   -4.9378    0.0000 C   0  0  0  0  0  0  0  0  0  0  0  0
   -2.2601   -4.7396    0.0000 C   0  0  0  0  0  0  0  0  0  0  0  0
   -2.4889   -3.9470    0.0000 C   0  0  0  0  0  0  0  0  0  0  0  0
   -1.9169   -3.3525    0.0000 C   0  0  0  0  0  0  0  0  0  0  0  0
   -2.8321   -5.3341    0.0000 C   0  0  0  0  0  0  0  0  0  0  0  0
   -3.4042   -5.9286    0.0000 N   0  0  0  0  0  0  0  0  0  0  0  0
   -0.0864    0.6107    0.0000 C   0  0  0  0  0  0  0  0  0  0  0  0
    0.4857    1.2051    0.0000 C   0  0  0  0  0  0  0  0  0  0  0  0
  1  2  1  0  0  0  0
  2  3  1  0  0  0  0
  2  4  1  0  0  0  0
  2  5  1  0  0  0  0
  5  6  1  0  0  0  0
  6  7  1  0  0  0  0
  7  8  1  0  0  0  0
  8  9  1  0  0  0  0
  9 10  1  0  0  0  0
  5 10  1  0  0  0  0
  8 11  1  0  0  0  0
 11 12  1  0  0  0  0
 12 13  2  0  0  0  0
 12 14  1  0  0  0  0
 14 15  2  0  0  0  0
 15 16  1  0  0  0  0
  8 16  1  0  0  0  0
 15 17  1  0  0  0  0
 17 18  2  0  0  0  0
 18 19  1  0  0  0  0
 19 20  1  0  0  0  0
 20 21  1  0  0  0  0
 21 22  2  0  0  0  0
 21 23  1  0  0  0  0
 23 24  1  0  0  0  0
 24 25  1  0  0  0  0
 25 26  1  0  0  0  0
 26 27  1  0  0  0  0
 27 28  1  0  0  0  0
 28 29  1  0  0  0  0
 24 29  1  0  0  0  0
 27 30  1  0  0  0  0
 30 31  3  0  0  0  0
 18 32  1  0  0  0  0
 32 33  2  0  0  0  0
 14 33  1  0  0  0  0
M  END
> <ID>
CPD_4627

$$$$
CPD_4632
  Mrv1822 09091914012D          

 18 18  0  0  0  0            999 V2000
    2.1434   -5.3625    0.0000 C   0  0  0  0  0  0  0  0  0  0  0  0
    2.8579   -4.9500    0.0000 C   0  0  0  0  0  0  0  0  0  0  0  0
    3.5724   -5.3625    0.0000 C   0  0  0  0  0  0  0  0  0  0  0  0
    4.2868   -4.9500    0.0000 C   0  0  0  0  0  0  0  0  0  0  0  0
    5.0013   -5.3625    0.0000 C   0  0  0  0  0  0  0  0  0  0  0  0
    5.0013   -6.1875    0.0000 N   0  0  0  0  0  0  0  0  0  0  0  0
    5.7158   -4.9500    0.0000 C   0  0  0  0  0  0  0  0  0  0  0  0
    6.4302   -5.3625    0.0000 C   0  0  0  0  0  0  0  0  0  0  0  0
    6.4302   -6.1875    0.0000 O   0  0  0  0  0  0  0  0  0  0  0  0
    7.1447   -4.9500    0.0000 O   0  0  0  0  0  0  0  0  0  0  0  0
    7.8592   -5.3625    0.0000 C   0  0  0  0  0  0  0  0  0  0  0  0
    8.5737   -4.9500    0.0000 C   0  0  0  0  0  0  0  0  0  0  0  0
    9.2881   -5.3625    0.0000 C   0  0  0  0  0  0  0  0  0  0  0  0
    9.2881   -6.1875    0.0000 C   0  0  0  0  0  0  0  0  0  0  0  0
    8.5737   -6.6000    0.0000 C   0  0  0  0  0  0  0  0  0  0  0  0
    7.8592   -6.1875    0.0000 C   0  0  0  0  0  0  0  0  0  0  0  0
   10.0026   -6.6000    0.0000 C   0  0  0  0  0  0  0  0  0  0  0  0
   10.7171   -7.0125    0.0000 N   0  0  0  0  0  0  0  0  0  0  0  0
  1  2  1  0  0  0  0
  2  3  1  0  0  0  0
  3  4  1  0  0  0  0
  4  5  1  0  0  0  0
  5  6  1  0  0  0  0
  5  7  1  0  0  0  0
  7  8  1  0  0  0  0
  8  9  2  0  0  0  0
  8 10  1  0  0  0  0
 10 11  1  0  0  0  0
 11 12  1  0  0  0  0
 12 13  1  0  0  0  0
 13 14  1  0  0  0  0
 14 15  1  0  0  0  0
 15 16  1  0  0  0  0
 11 16  1  0  0  0  0
 14 17  1  0  0  0  0
 17 18  3  0  0  0  0
M  END
> <ID>
CPD_4632

$$$$
CPD_4637
  Mrv1822 09091914012D          

 29 30  0  0  1  0            999 V2000
    4.2868   -0.8250    0.0000 C   0  0  0  0  0  0  0  0  0  0  0  0
    3.5724   -1.2375    0.0000 C   0  0  0  0  0  0  0  0  0  0  0  0
    3.9849   -1.9520    0.0000 C   0  0  0  0  0  0  0  0  0  0  0  0
    3.1599   -0.5230    0.0000 C   0  0  0  0  0  0  0  0  0  0  0  0
    2.8579   -1.6500    0.0000 O   0  0  0  0  0  0  0  0  0  0  0  0
    2.1434   -1.2375    0.0000 C   0  0  0  0  0  0  0  0  0  0  0  0
    2.1434   -0.4125    0.0000 O   0  0  0  0  0  0  0  0  0  0  0  0
    1.4289   -1.6500    0.0000 N   0  0  0  0  0  0  0  0  0  0  0  0
    1.4289   -2.4750    0.0000 C   0  0  2  0  0  0  0  0  0  0  0  0
    0.7145   -2.8875    0.0000 C   0  0  0  0  0  0  0  0  0  0  0  0
    0.0000   -2.4750    0.0000 C   0  0  0  0  0  0  0  0  0  0  0  0
   -0.7145   -2.8875    0.0000 C   0  0  0  0  0  0  0  0  0  0  0  0
   -1.4289   -2.4750    0.0000 C   0  0  0  0  0  0  0  0  0  0  0  0
   -1.4289   -1.6500    0.0000 C   0  0  0  0  0  0  0  0  0  0  0  0
   -0.7145   -1.2375    0.0000 C   0  0  0  0  0  0  0  0  0  0  0  0
    0.0000   -1.6500    0.0000 C   0  0  0  0  0  0  0  0  0  0  0  0
   -0.7145   -0.4125    0.0000 C   0  0  0  0  0  0  0  0  0  0  0  0
   -0.7145    0.4125    0.0000 N   0  0  0  0  0  0  0  0  0  0  0  0
    2.1434   -2.8875    0.0000 C   0  0  0  0  0  0  0  0  0  0  0  0
    2.1434   -3.7125    0.0000 O   0  0  0  0  0  0  0  0  0  0  0  0
    2.8579   -2.4750    0.0000 O   0  0  0  0  0  0  0  0  0  0  0  0
    3.5724   -2.8875    0.0000 C   0  0  0  0  0  0  0  0  0  0  0  0
    4.2868   -2.4750    0.0000 C   0  0  0  0  0  0  0  0  0  0  0  0
    5.0013   -2.8875    0.0000 C   0  0  0  0  0  0  0  0  0  0  0  0
    5.0013   -3.7125    0.0000 C   0  0  0  0  0  0  0  0  0  0  0  0
    4.2868   -4.1250    0.0000 C   0  0  0  0  0  0  0  0  0  0  0  0
    3.5724   -3.7125    0.0000 C   0  0  0  0  0  0  0  0  0  0  0  0
    5.7158   -4.1250    0.0000 C   0  0  0  0  0  0  0  0  0  0  0  0
    6.4302   -4.5375    0.0000 N   0  0  0  0  0  0  0  0  0  0  0  0
  1  2  1  0  0  0  0
  2  3  1  0  0  0  0
  2  4  1  0  0  0  0
  2  5  1  0  0  0  0
  5  6  1  0  0  0  0
  6  7  2  0  0  0  0
  6  8  1  0  0  0  0
  9  8  1  1  0  0  0
  9 10  1  0  0  0  0
 10 11  1  0  0  0  0
 11 12  2  0  0  0  0
 12 13  1  0  0  0  0
 13 14  2  0  0  0  0
 14 15  1  0  0  0  0
 15 16  2  0  0  0  0
 11 16  1  0  0  0  0
 15 17  1  0  0  0  0
 17 18  3  0  0  0  0
  9 19  1  0  0  0  0
 19 20  2  0  0  0  0
 19 21  1  0  0  0  0
 21 22  1  0  0  0  0
 22 23  1  0  0  0  0
 23 24  1  0  0  0  0
 24 25  1  0  0  0  0
 25 26  1  0  0  0  0
 26 27  1  0  0  0  0
 22 27  1  0  0  0  0
 25 28  1  0  0  0  0
 28 29  3  0  0  0  0
M  END
> <ID>
CPD_4637

$$$$
CPD_4642
  Mrv1822 09091914012D          

 28 30  0  0  0  0            999 V2000
    2.1434   -2.0625    0.0000 F   0  0  0  0  0  0  0  0  0  0  0  0
    2.8579   -2.4750    0.0000 C   0  0  0  0  0  0  0  0  0  0  0  0
    2.4454   -3.1895    0.0000 F   0  0  0  0  0  0  0  0  0  0  0  0
    3.2704   -1.7605    0.0000 F   0  0  0  0  0  0  0  0  0  0  0  0
    3.5724   -2.8875    0.0000 O   0  0  0  0  0  0  0  0  0  0  0  0
    3.5724   -3.7125    0.0000 C   0  0  0  0  0  0  0  0  0  0  0  0
    4.2868   -4.1250    0.0000 C   0  0  0  0  0  0  0  0  0  0  0  0
    4.2868   -4.9500    0.0000 C   0  0  0  0  0  0  0  0  0  0  0  0
    3.5724   -5.3625    0.0000 C   0  0  0  0  0  0  0  0  0  0  0  0
    2.8579   -4.9500    0.0000 C   0  0  0  0  0  0  0  0  0  0  0  0
    2.8579   -4.1250    0.0000 C   0  0  0  0  0  0  0  0  0  0  0  0
    5.0013   -5.3625    0.0000 C   0  0  0  0  0  0  0  0  0  0  0  0
    5.7158   -4.9500    0.0000 C   0  0  0  0  0  0  0  0  0  0  0  0
    6.4302   -5.3625    0.0000 C   0  0  0  0  0  0  0  0  0  0  0  0
    6.4302   -6.1875    0.0000 C   0  0  0  0  0  0  0  0  0  0  0  0
    5.7158   -6.6000    0.0000 C   0  0  0  0  0  0  0  0  0  0  0  0
    5.0013   -6.1875    0.0000 C   0  0  0  0  0  0  0  0  0  0  0  0
    5.7158   -7.4250    0.0000 C   0  0  0  0  0  0  0  0  0  0  0  0
    5.0013   -7.8375    0.0000 O   0  0  0  0  0  0  0  0  0  0  0  0
    6.4302   -7.8375    0.0000 O   0  0  0  0  0  0  0  0  0  0  0  0
    6.4302   -8.6625    0.0000 C   0  0  0  0  0  0  0  0  0  0  0  0
    7.1447   -9.0750    0.0000 C   0  0  0  0  0  0  0  0  0  0  0  0
    7.1447   -9.9000    0.0000 C   0  0  0  0  0  0  0  0  0  0  0  0
    6.4302  -10.3125    0.0000 C   0  0  0  0  0  0  0  0  0  0  0  0
    5.7158   -9.9000    0.0000 C   0  0  0  0  0  0  0  0  0  0  0  0
    5.7158   -9.0750    0.0000 C   0  0  0  0  0  0  0  0  0  0  0  0
    6.4302  -11.1375    0.0000 C   0  0  0  0  0  0  0  0  0  0  0  0
    6.4302  -11.9625    0.0000 N   0  0  0  0  0  0  0  0  0  0  0  0
  1  2  1  0  0  0  0
  2  3  1  0  0  0  0
  2  4  1  0  0  0  0
  2  5  1  0  0  0  0
  5  6  1  0  0  0  0
  6  7  2  0  0  0  0
  7  8  1  0  0  0  0
  8  9  2  0  0  0  0
  9 10  1  0  0  0  0
 10 11  2  0  0  0  0
  6 11  1  0  0  0  0
  8 12  1  0  0  0  0
 12 13  2  0  0  0  0
 13 14  1  0  0  0  0
 14 15  2  0  0  0  0
 15 16  1  0  0  0  0
 16 17  2  0  0  0  0
 12 17  1  0  0  0  0
 16 18  1  0  0  0  0
 18 19  2  0  0  0  0
 18 20  1  0  0  0  0
 20 21  1  0  0  0  0
 21 22  1  0  0  0  0
 22 23  1  0  0  0  0
 23 24  1  0  0  0  0
 24 25  1  0  0  0  0
 25 26  1  0  0  0  0
 21 26  1  0  0  0  0
 24 27  1  0  0  0  0
 27 28  3  0  0  0  0
M  END
> <ID>
CPD_4642

$$$$
CPD_4647
  Mrv1822 09091914012D          

 19 21  0  0  0  0            999 V2000
    1.4289   -0.8250    0.0000 O   0  0  0  0  0  0  0  0  0  0  0  0
    1.4289   -1.6500    0.0000 C   0  0  0  0  0  0  0  0  0  0  0  0
    0.7145   -2.0625    0.0000 C   0  0  0  0  0  0  0  0  0  0  0  0
    0.0000   -1.6500    0.0000 C   0  0  0  0  0  0  0  0  0  0  0  0
   -0.7145   -2.0625    0.0000 C   0  0  0  0  0  0  0  0  0  0  0  0
   -1.4289   -1.6500    0.0000 C   0  0  0  0  0  0  0  0  0  0  0  0
   -1.4289   -0.8250    0.0000 N   0  0  0  0  0  0  0  0  0  0  0  0
   -0.7145   -0.4125    0.0000 C   0  0  0  0  0  0  0  0  0  0  0  0
    0.0000   -0.8250    0.0000 C   0  0  0  0  0  0  0  0  0  0  0  0
    2.1434   -2.0625    0.0000 O   0  0  0  0  0  0  0  0  0  0  0  0
    2.8579   -1.6500    0.0000 C   0  0  0  0  0  0  0  0  0  0  0  0
    3.5724   -2.0625    0.0000 C   0  0  0  0  0  0  0  0  0  0  0  0
    4.3260   -1.7269    0.0000 N   0  0  0  0  0  0  0  0  0  0  0  0
    4.8781   -2.3400    0.0000 C   0  0  0  0  0  0  0  0  0  0  0  0
    4.4656   -3.0545    0.0000 C   0  0  0  0  0  0  0  0  0  0  0  0
    3.6586   -2.8830    0.0000 S   0  0  0  0  0  0  0  0  0  0  0  0
    5.6985   -2.2538    0.0000 C   0  0  0  0  0  0  0  0  0  0  0  0
    6.3660   -1.7689    0.0000 C   0  0  0  0  0  0  0  0  0  0  0  0
    6.4522   -2.5894    0.0000 C   0  0  0  0  0  0  0  0  0  0  0  0
  1  2  2  0  0  0  0
  2  3  1  0  0  0  0
  3  4  1  0  0  0  0
  4  5  2  0  0  0  0
  5  6  1  0  0  0  0
  6  7  2  0  0  0  0
  7  8  1  0  0  0  0
  8  9  2  0  0  0  0
  4  9  1  0  0  0  0
  2 10  1  0  0  0  0
 10 11  1  0  0  0  0
 11 12  1  0  0  0  0
 12 13  2  0  0  0  0
 13 14  1  0  0  0  0
 14 15  2  0  0  0  0
 15 16  1  0  0  0  0
 12 16  1  0  0  0  0
 14 17  1  0  0  0  0
 17 18  1  0  0  0  0
 18 19  1  0  0  0  0
 17 19  1  0  0  0  0
M  END
> <ID>
CPD_4647

$$$$
CPD_4652
  Mrv1822 09091914012D          

 38 42  0  0  0  0            999 V2000
    5.8711    1.1564    0.0000 C   0  0  0  0  0  0  0  0  0  0  0  0
    6.5856    0.7439    0.0000 C   0  0  0  0  0  0  0  0  0  0  0  0
    6.5856   -0.0811    0.0000 C   0  0  0  0  0  0  0  0  0  0  0  0
    7.2530   -0.5660    0.0000 C   0  0  0  0  0  0  0  0  0  0  0  0
    8.0376   -0.3111    0.0000 C   0  0  0  0  0  0  0  0  0  0  0  0
    8.2091    0.4959    0.0000 C   0  0  0  0  0  0  0  0  0  0  0  0
    7.6571    1.1090    0.0000 C   0  0  0  0  0  0  0  0  0  0  0  0
    6.8366    1.0227    0.0000 C   0  0  0  0  0  0  0  0  0  0  0  0
    8.0696    1.8234    0.0000 N   0  0  0  0  0  0  0  0  0  0  0  0
    8.8766    1.6519    0.0000 N   0  0  0  0  0  0  0  0  0  0  0  0
    8.9628    0.8314    0.0000 C   0  0  0  0  0  0  0  0  0  0  0  0
    9.6773    0.4189    0.0000 C   0  0  0  0  0  0  0  0  0  0  0  0
    6.9981   -1.3507    0.0000 C   0  0  0  0  0  0  0  0  0  0  0  0
    6.1731   -1.3507    0.0000 N   0  0  0  0  0  0  0  0  0  0  0  0
    5.9181   -0.5660    0.0000 O   0  0  0  0  0  0  0  0  0  0  0  0
    7.4830   -2.0181    0.0000 C   0  0  0  0  0  0  0  0  0  0  0  0
    8.3035   -1.9319    0.0000 O   0  0  0  0  0  0  0  0  0  0  0  0
    7.1474   -2.7718    0.0000 N   0  0  0  0  0  0  0  0  0  0  0  0
    7.6323   -3.4392    0.0000 C   0  0  0  0  0  0  0  0  0  0  0  0
    8.4528   -3.3530    0.0000 C   0  0  0  0  0  0  0  0  0  0  0  0
    8.9377   -4.0204    0.0000 C   0  0  0  0  0  0  0  0  0  0  0  0
    8.6022   -4.7741    0.0000 C   0  0  0  0  0  0  0  0  0  0  0  0
    7.7817   -4.8603    0.0000 C   0  0  0  0  0  0  0  0  0  0  0  0
    7.2968   -4.1929    0.0000 C   0  0  0  0  0  0  0  0  0  0  0  0
    9.0871   -5.4415    0.0000 N   0  0  0  0  0  0  0  0  0  0  0  0
    9.9121   -5.4415    0.0000 C   0  0  0  0  0  0  0  0  0  0  0  0
   10.3970   -4.7741    0.0000 C   0  0  0  0  0  0  0  0  0  0  0  0
   10.1670   -6.2261    0.0000 C   0  0  0  0  0  0  0  0  0  0  0  0
   10.9517   -6.4811    0.0000 C   0  0  0  0  0  0  0  0  0  0  0  0
    9.4996   -6.7111    0.0000 N   0  0  0  0  0  0  0  0  0  0  0  0
    8.8322   -6.2261    0.0000 C   0  0  0  0  0  0  0  0  0  0  0  0
    8.0475   -6.4811    0.0000 C   0  0  0  0  0  0  0  0  0  0  0  0
    7.8760   -7.2881    0.0000 C   0  0  0  0  0  0  0  0  0  0  0  0
    7.0914   -7.5430    0.0000 C   0  0  0  0  0  0  0  0  0  0  0  0
    6.4783   -6.9910    0.0000 C   0  0  0  0  0  0  0  0  0  0  0  0
    5.6937   -7.2459    0.0000 Cl  0  0  0  0  0  0  0  0  0  0  0  0
    6.6498   -6.1840    0.0000 C   0  0  0  0  0  0  0  0  0  0  0  0
    7.4345   -5.9291    0.0000 C   0  0  0  0  0  0  0  0  0  0  0  0
  1  2  1  0  0  0  0
  2  3  1  0  0  0  0
  3  4  2  0  0  0  0
  4  5  1  0  0  0  0
  5  6  1  0  0  0  0
  6  7  2  0  0  0  0
  7  8  1  0  0  0  0
  7  9  1  0  0  0  0
  9 10  1  0  0  0  0
 10 11  2  0  0  0  0
  6 11  1  0  0  0  0
 11 12  1  0  0  0  0
  4 13  1  0  0  0  0
 13 14  2  0  0  0  0
 14 15  1  0  0  0  0
  3 15  1  0  0  0  0
 13 16  1  0  0  0  0
 16 17  2  0  0  0  0
 16 18  1  0  0  0  0
 18 19  1  0  0  0  0
 19 20  2  0  0  0  0
 20 21  1  0  0  0  0
 21 22  2  0  0  0  0
 22 23  1  0  0  0  0
 23 24  2  0  0  0  0
 19 24  1  0  0  0  0
 22 25  1  0  0  0  0
 25 26  1  0  0  0  0
 26 27  1  0  0  0  0
 26 28  2  0  0  0  0
 28 29  1  0  0  0  0
 28 30  1  0  0  0  0
 30 31  2  0  0  0  0
 25 31  1  0  0  0  0
 31 32  1  0  0  0  0
 32 33  2  0  0  0  0
 33 34  1  0  0  0  0
 34 35  2  0  0  0  0
 35 36  1  0  0  0  0
 35 37  1  0  0  0  0
 37 38  2  0  0  0  0
 32 38  1  0  0  0  0
M  END
> <ID>
CPD_4652

$$$$
CPD_4657
  Mrv1822 09091914012D          

 33 37  0  0  0  0            999 V2000
    2.7845    0.6979    0.0000 C   0  0  0  0  0  0  0  0  0  0  0  0
    2.0701    1.1104    0.0000 C   0  0  0  0  0  0  0  0  0  0  0  0
    1.3556    0.6979    0.0000 C   0  0  0  0  0  0  0  0  0  0  0  0
    0.6411    1.1104    0.0000 N   0  0  0  0  0  0  0  0  0  0  0  0
   -0.1435    0.8555    0.0000 C   0  0  0  0  0  0  0  0  0  0  0  0
   -0.6284    1.5229    0.0000 C   0  0  0  0  0  0  0  0  0  0  0  0
   -0.1435    2.1904    0.0000 N   0  0  0  0  0  0  0  0  0  0  0  0
    0.6411    1.9354    0.0000 C   0  0  0  0  0  0  0  0  0  0  0  0
    1.3556    2.3479    0.0000 C   0  0  0  0  0  0  0  0  0  0  0  0
    1.3556    3.1729    0.0000 Br  0  0  0  0  0  0  0  0  0  0  0  0
    2.0701    1.9354    0.0000 C   0  0  0  0  0  0  0  0  0  0  0  0
   -1.4534    1.5229    0.0000 C   0  0  0  0  0  0  0  0  0  0  0  0
   -1.8659    0.8085    0.0000 O   0  0  0  0  0  0  0  0  0  0  0  0
   -1.8659    2.2374    0.0000 N   0  0  0  0  0  0  0  0  0  0  0  0
   -2.6909    2.2374    0.0000 C   0  0  0  0  0  0  0  0  0  0  0  0
   -3.1759    1.5700    0.0000 N   0  0  0  0  0  0  0  0  0  0  0  0
   -3.9605    1.8249    0.0000 N   0  0  0  0  0  0  0  0  0  0  0  0
   -3.9605    2.6499    0.0000 C   0  0  0  0  0  0  0  0  0  0  0  0
   -3.1759    2.9049    0.0000 S   0  0  0  0  0  0  0  0  0  0  0  0
   -4.6279    3.1348    0.0000 C   0  0  0  0  0  0  0  0  0  0  0  0
   -5.3816    2.7993    0.0000 C   0  0  0  0  0  0  0  0  0  0  0  0
   -6.0490    3.2842    0.0000 C   0  0  0  0  0  0  0  0  0  0  0  0
   -5.9628    4.1047    0.0000 N   0  0  0  0  0  0  0  0  0  0  0  0
   -5.2091    4.4402    0.0000 C   0  0  0  0  0  0  0  0  0  0  0  0
   -4.5417    3.9553    0.0000 C   0  0  0  0  0  0  0  0  0  0  0  0
   -6.6302    4.5896    0.0000 C   0  0  0  0  0  0  0  0  0  0  0  0
   -7.3839    4.2540    0.0000 O   0  0  0  0  0  0  0  0  0  0  0  0
   -6.5440    5.4101    0.0000 C   0  0  0  0  0  0  0  0  0  0  0  0
   -7.2114    5.8950    0.0000 C   0  0  0  0  0  0  0  0  0  0  0  0
   -7.1252    6.7155    0.0000 C   0  0  0  0  0  0  0  0  0  0  0  0
   -6.3715    7.0510    0.0000 C   0  0  0  0  0  0  0  0  0  0  0  0
   -5.7041    6.5661    0.0000 C   0  0  0  0  0  0  0  0  0  0  0  0
   -5.7903    5.7456    0.0000 C   0  0  0  0  0  0  0  0  0  0  0  0
  1  2  1  0  0  0  0
  2  3  2  0  0  0  0
  3  4  1  0  0  0  0
  4  5  1  0  0  0  0
  5  6  2  0  0  0  0
  6  7  1  0  0  0  0
  7  8  2  0  0  0  0
  4  8  1  0  0  0  0
  8  9  1  0  0  0  0
  9 10  1  0  0  0  0
  9 11  2  0  0  0  0
  2 11  1  0  0  0  0
  6 12  1  0  0  0  0
 12 13  2  0  0  0  0
 12 14  1  0  0  0  0
 14 15  1  0  0  0  0
 15 16  2  0  0  0  0
 16 17  1  0  0  0  0
 17 18  2  0  0  0  0
 18 19  1  0  0  0  0
 15 19  1  0  0  0  0
 18 20  1  0  0  0  0
 20 21  1  0  0  0  0
 21 22  1  0  0  0  0
 22 23  1  0  0  0  0
 23 24  1  0  0  0  0
 24 25  1  0  0  0  0
 20 25  1  0  0  0  0
 23 26  1  0  0  0  0
 26 27  2  0  0  0  0
 26 28  1  0  0  0  0
 28 29  2  0  0  0  0
 29 30  1  0  0  0  0
 30 31  2  0  0  0  0
 31 32  1  0  0  0  0
 32 33  2  0  0  0  0
 28 33  1  0  0  0  0
M  END
> <ID>
CPD_4657

$$$$
CPD_4662
  Mrv1822 09091914012D          

 34 36  0  0  1  0            999 V2000
   -2.8231   -4.8113    0.0000 C   0  0  0  0  0  0  0  0  0  0  0  0
   -2.0026   -4.8975    0.0000 C   0  0  0  0  0  0  0  0  0  0  0  0
   -2.0889   -5.7180    0.0000 C   0  0  0  0  0  0  0  0  0  0  0  0
   -1.9164   -4.0770    0.0000 C   0  0  0  0  0  0  0  0  0  0  0  0
   -1.1822   -4.9837    0.0000 O   0  0  0  0  0  0  0  0  0  0  0  0
   -0.6972   -4.3163    0.0000 C   0  0  0  0  0  0  0  0  0  0  0  0
   -1.0328   -3.5626    0.0000 O   0  0  0  0  0  0  0  0  0  0  0  0
    0.1232   -4.4025    0.0000 N   0  0  0  0  0  0  0  0  0  0  0  0
    0.6753   -3.7894    0.0000 C   0  0  1  0  0  0  0  0  0  0  0  0
    0.5037   -2.9825    0.0000 C   0  0  0  0  0  0  0  0  0  0  0  0
    1.1168   -2.4304    0.0000 C   0  0  0  0  0  0  0  0  0  0  0  0
    1.9015   -2.6854    0.0000 C   0  0  0  0  0  0  0  0  0  0  0  0
    2.5146   -2.1333    0.0000 C   0  0  0  0  0  0  0  0  0  0  0  0
    2.3430   -1.3264    0.0000 C   0  0  0  0  0  0  0  0  0  0  0  0
    1.5584   -1.0714    0.0000 C   0  0  0  0  0  0  0  0  0  0  0  0
    0.9453   -1.6235    0.0000 C   0  0  0  0  0  0  0  0  0  0  0  0
    0.1607   -1.3685    0.0000 F   0  0  0  0  0  0  0  0  0  0  0  0
    1.4289   -4.1250    0.0000 C   0  0  0  0  0  0  0  0  0  0  0  0
    2.1434   -3.7125    0.0000 O   0  0  0  0  0  0  0  0  0  0  0  0
    2.8579   -4.1250    0.0000 C   0  0  0  0  0  0  0  0  0  0  0  0
    2.8579   -4.9500    0.0000 O   0  0  0  0  0  0  0  0  0  0  0  0
    3.5724   -3.7125    0.0000 C   0  0  0  0  0  0  0  0  0  0  0  0
    4.2868   -4.1250    0.0000 C   0  0  2  0  0  0  0  0  0  0  0  0
    4.2868   -4.9500    0.0000 N   0  0  0  0  0  0  0  0  0  0  0  0
    5.0013   -3.7125    0.0000 C   0  0  0  0  0  0  0  0  0  0  0  0
    5.7158   -4.1250    0.0000 C   0  0  0  0  0  0  0  0  0  0  0  0
    6.4302   -3.7125    0.0000 C   0  0  0  0  0  0  0  0  0  0  0  0
    7.1447   -4.1250    0.0000 C   0  0  0  0  0  0  0  0  0  0  0  0
    7.1447   -4.9500    0.0000 C   0  0  0  0  0  0  0  0  0  0  0  0
    6.4302   -5.3625    0.0000 C   0  0  0  0  0  0  0  0  0  0  0  0
    5.7158   -4.9500    0.0000 C   0  0  0  0  0  0  0  0  0  0  0  0
    1.3427   -4.9455    0.0000 C   0  0  0  0  0  0  0  0  0  0  0  0
    0.5357   -5.1170    0.0000 C   0  0  0  0  0  0  0  0  0  0  0  0
    0.2002   -5.8707    0.0000 O   0  0  0  0  0  0  0  0  0  0  0  0
  1  2  1  0  0  0  0
  2  3  1  0  0  0  0
  2  4  1  0  0  0  0
  2  5  1  0  0  0  0
  5  6  1  0  0  0  0
  6  7  2  0  0  0  0
  6  8  1  0  0  0  0
  9  8  1  0  0  0  0
  9 10  1  1  0  0  0
 10 11  1  0  0  0  0
 11 12  2  0  0  0  0
 12 13  1  0  0  0  0
 13 14  2  0  0  0  0
 14 15  1  0  0  0  0
 15 16  2  0  0  0  0
 11 16  1  0  0  0  0
 16 17  1  0  0  0  0
  9 18  1  0  0  0  0
 18 19  1  0  0  0  0
 19 20  1  0  0  0  0
 20 21  2  0  0  0  0
 20 22  1  0  0  0  0
 23 22  1  0  0  0  0
 23 24  1  1  0  0  0
 23 25  1  0  0  0  0
 25 26  1  0  0  0  0
 26 27  2  0  0  0  0
 27 28  1  0  0  0  0
 28 29  2  0  0  0  0
 29 30  1  0  0  0  0
 30 31  2  0  0  0  0
 26 31  1  0  0  0  0
 18 32  2  0  0  0  0
 32 33  1  0  0  0  0
  8 33  1  0  0  0  0
 33 34  2  0  0  0  0
M  END
> <ID>
CPD_4662

$$$$
CPD_4667
  Mrv1822 09091914012D          

 34 36  0  0  1  0            999 V2000
   -2.8444    0.2526    0.0000 C   0  0  0  0  0  0  0  0  0  0  0  0
   -2.8444   -0.5724    0.0000 C   0  0  0  0  0  0  0  0  0  0  0  0
   -2.1770   -1.0573    0.0000 C   0  0  0  0  0  0  0  0  0  0  0  0
   -2.4319   -1.8419    0.0000 S   0  0  0  0  0  0  0  0  0  0  0  0
   -3.2569   -1.8419    0.0000 C   0  0  0  0  0  0  0  0  0  0  0  0
   -3.7419   -2.5093    0.0000 N   0  0  0  0  0  0  0  0  0  0  0  0
   -4.5624   -2.4231    0.0000 C   0  0  0  0  0  0  0  0  0  0  0  0
   -5.0473   -3.0906    0.0000 N   0  0  0  0  0  0  0  0  0  0  0  0
   -4.8979   -1.6694    0.0000 N   0  0  0  0  0  0  0  0  0  0  0  0
   -3.5119   -1.0573    0.0000 N   0  0  0  0  0  0  0  0  0  0  0  0
   -1.3924   -0.8023    0.0000 C   0  0  0  0  0  0  0  0  0  0  0  0
   -1.2209    0.0046    0.0000 O   0  0  0  0  0  0  0  0  0  0  0  0
   -0.7793   -1.3544    0.0000 O   0  0  0  0  0  0  0  0  0  0  0  0
   -0.9508   -2.1614    0.0000 C   0  0  0  0  0  0  0  0  0  0  0  0
   -1.7045   -2.4969    0.0000 C   0  0  0  0  0  0  0  0  0  0  0  0
   -1.6183   -3.3174    0.0000 C   0  0  0  0  0  0  0  0  0  0  0  0
   -2.2314   -3.8694    0.0000 O   0  0  0  0  0  0  0  0  0  0  0  0
   -0.8113   -3.4889    0.0000 N   0  0  0  0  0  0  0  0  0  0  0  0
   -0.3988   -2.7744    0.0000 C   0  0  1  0  0  0  0  0  0  0  0  0
    0.4217   -2.6882    0.0000 C   0  0  0  0  0  0  0  0  0  0  0  0
    0.7573   -1.9345    0.0000 C   0  0  0  0  0  0  0  0  0  0  0  0
    0.2723   -1.2671    0.0000 C   0  0  0  0  0  0  0  0  0  0  0  0
    0.6079   -0.5134    0.0000 C   0  0  0  0  0  0  0  0  0  0  0  0
    1.4284   -0.4272    0.0000 C   0  0  0  0  0  0  0  0  0  0  0  0
    1.9133   -1.0946    0.0000 C   0  0  0  0  0  0  0  0  0  0  0  0
    1.5777   -1.8483    0.0000 C   0  0  0  0  0  0  0  0  0  0  0  0
    2.0627   -2.5157    0.0000 F   0  0  0  0  0  0  0  0  0  0  0  0
   -0.4757   -4.2426    0.0000 C   0  0  0  0  0  0  0  0  0  0  0  0
    0.3448   -4.3288    0.0000 O   0  0  0  0  0  0  0  0  0  0  0  0
   -0.9607   -4.9100    0.0000 O   0  0  0  0  0  0  0  0  0  0  0  0
   -1.7811   -4.8238    0.0000 C   0  0  0  0  0  0  0  0  0  0  0  0
   -1.6949   -4.0033    0.0000 C   0  0  0  0  0  0  0  0  0  0  0  0
   -1.8674   -5.6443    0.0000 C   0  0  0  0  0  0  0  0  0  0  0  0
   -2.6016   -4.7376    0.0000 C   0  0  0  0  0  0  0  0  0  0  0  0
  1  2  1  0  0  0  0
  2  3  2  0  0  0  0
  3  4  1  0  0  0  0
  4  5  1  0  0  0  0
  5  6  1  0  0  0  0
  6  7  1  0  0  0  0
  7  8  1  0  0  0  0
  7  9  2  0  0  0  0
  5 10  2  0  0  0  0
  2 10  1  0  0  0  0
  3 11  1  0  0  0  0
 11 12  2  0  0  0  0
 11 13  1  0  0  0  0
 13 14  1  0  0  0  0
 14 15  2  0  0  0  0
 15 16  1  0  0  0  0
 16 17  2  0  0  0  0
 16 18  1  0  0  0  0
 19 18  1  0  0  0  0
 19 14  1  0  0  0  0
 19 20  1  6  0  0  0
 20 21  1  0  0  0  0
 21 22  2  0  0  0  0
 22 23  1  0  0  0  0
 23 24  2  0  0  0  0
 24 25  1  0  0  0  0
 25 26  2  0  0  0  0
 21 26  1  0  0  0  0
 26 27  1  0  0  0  0
 18 28  1  0  0  0  0
 28 29  2  0  0  0  0
 28 30  1  0  0  0  0
 30 31  1  0  0  0  0
 31 32  1  0  0  0  0
 31 33  1  0  0  0  0
 31 34  1  0  0  0  0
M  END
> <ID>
CPD_4667

$$$$
CPD_4672
  Mrv1822 09091914012D          

 22 24  0  0  0  0            999 V2000
   -2.1434   -1.2375    0.0000 C   0  0  0  0  0  0  0  0  0  0  0  0
   -1.4289   -1.6500    0.0000 S   0  0  0  0  0  0  0  0  0  0  0  0
   -0.7145   -1.2375    0.0000 C   0  0  0  0  0  0  0  0  0  0  0  0
    0.0000   -1.6500    0.0000 N   0  0  0  0  0  0  0  0  0  0  0  0
    0.7145   -1.2375    0.0000 C   0  0  0  0  0  0  0  0  0  0  0  0
    0.7145   -0.4125    0.0000 C   0  0  0  0  0  0  0  0  0  0  0  0
    0.0000   -0.0000    0.0000 C   0  0  0  0  0  0  0  0  0  0  0  0
   -0.7145   -0.4125    0.0000 N   0  0  0  0  0  0  0  0  0  0  0  0
    1.4289   -0.0000    0.0000 C   0  0  0  0  0  0  0  0  0  0  0  0
    2.1434   -0.4125    0.0000 C   0  0  0  0  0  0  0  0  0  0  0  0
    2.8579   -0.0000    0.0000 O   0  0  0  0  0  0  0  0  0  0  0  0
    2.8579    0.8250    0.0000 C   0  0  0  0  0  0  0  0  0  0  0  0
    2.1434    1.2375    0.0000 O   0  0  0  0  0  0  0  0  0  0  0  0
    3.5724    1.2375    0.0000 C   0  0  0  0  0  0  0  0  0  0  0  0
    3.5724    2.0625    0.0000 N   0  0  0  0  0  0  0  0  0  0  0  0
    4.2868    2.4750    0.0000 C   0  0  0  0  0  0  0  0  0  0  0  0
    5.0013    2.0625    0.0000 C   0  0  0  0  0  0  0  0  0  0  0  0
    5.0013    1.2375    0.0000 C   0  0  0  0  0  0  0  0  0  0  0  0
    4.2868    0.8250    0.0000 C   0  0  0  0  0  0  0  0  0  0  0  0
    4.2868   -0.0000    0.0000 O   0  0  0  0  0  0  0  0  0  0  0  0
    2.1434   -1.2375    0.0000 C   0  0  0  0  0  0  0  0  0  0  0  0
    1.4289   -1.6500    0.0000 C   0  0  0  0  0  0  0  0  0  0  0  0
  1  2  1  0  0  0  0
  2  3  1  0  0  0  0
  3  4  2  0  0  0  0
  4  5  1  0  0  0  0
  5  6  2  0  0  0  0
  6  7  1  0  0  0  0
  7  8  2  0  0  0  0
  3  8  1  0  0  0  0
  6  9  1  0  0  0  0
  9 10  2  0  0  0  0
 10 11  1  0  0  0  0
 11 12  1  0  0  0  0
 12 13  2  0  0  0  0
 12 14  1  0  0  0  0
 14 15  2  0  0  0  0
 15 16  1  0  0  0  0
 16 17  2  0  0  0  0
 17 18  1  0  0  0  0
 18 19  2  0  0  0  0
 14 19  1  0  0  0  0
 19 20  1  0  0  0  0
 10 21  1  0  0  0  0
 21 22  2  0  0  0  0
  5 22  1  0  0  0  0
M  END
> <ID>
CPD_4672

$$$$
CPD_4677
  Mrv1822 09091914012D          

 39 43  0  0  0  0            999 V2000
   -2.0367   -7.0741    0.0000 C   0  0  0  0  0  0  0  0  0  0  0  0
   -2.0367   -6.2491    0.0000 N   0  0  0  0  0  0  0  0  0  0  0  0
   -1.3222   -5.8366    0.0000 C   0  0  0  0  0  0  0  0  0  0  0  0
   -1.3222   -5.0116    0.0000 C   0  0  0  0  0  0  0  0  0  0  0  0
   -0.6078   -4.5991    0.0000 C   0  0  0  0  0  0  0  0  0  0  0  0
    0.1067   -5.0116    0.0000 C   0  0  0  0  0  0  0  0  0  0  0  0
    0.1067   -5.8366    0.0000 C   0  0  0  0  0  0  0  0  0  0  0  0
   -0.6078   -6.2491    0.0000 C   0  0  0  0  0  0  0  0  0  0  0  0
   -0.6078   -7.0741    0.0000 C   0  0  0  0  0  0  0  0  0  0  0  0
    0.8212   -4.5991    0.0000 C   0  0  0  0  0  0  0  0  0  0  0  0
    0.8212   -3.7741    0.0000 O   0  0  0  0  0  0  0  0  0  0  0  0
    1.5356   -5.0116    0.0000 N   0  0  0  0  0  0  0  0  0  0  0  0
    2.2501   -4.5991    0.0000 C   0  0  0  0  0  0  0  0  0  0  0  0
    2.2501   -3.7741    0.0000 C   0  0  0  0  0  0  0  0  0  0  0  0
    2.9646   -3.3616    0.0000 C   0  0  0  0  0  0  0  0  0  0  0  0
    3.6791   -3.7741    0.0000 C   0  0  0  0  0  0  0  0  0  0  0  0
    3.6791   -4.5991    0.0000 C   0  0  0  0  0  0  0  0  0  0  0  0
    2.9646   -5.0116    0.0000 C   0  0  0  0  0  0  0  0  0  0  0  0
    2.9646   -5.8366    0.0000 N   0  0  0  0  0  0  0  0  0  0  0  0
    3.6320   -6.3215    0.0000 C   0  0  0  0  0  0  0  0  0  0  0  0
    3.3771   -7.1062    0.0000 C   0  0  0  0  0  0  0  0  0  0  0  0
    2.5521   -7.1062    0.0000 C   0  0  0  0  0  0  0  0  0  0  0  0
    2.2972   -6.3215    0.0000 C   0  0  0  0  0  0  0  0  0  0  0  0
    1.5125   -6.0666    0.0000 O   0  0  0  0  0  0  0  0  0  0  0  0
    4.3935   -3.3616    0.0000 N   0  0  0  0  0  0  0  0  0  0  0  0
    4.4798   -2.5411    0.0000 C   0  0  0  0  0  0  0  0  0  0  0  0
    5.2867   -2.3696    0.0000 C   0  0  0  0  0  0  0  0  0  0  0  0
    5.6992   -3.0841    0.0000 C   0  0  0  0  0  0  0  0  0  0  0  0
    5.1472   -3.6972    0.0000 C   0  0  0  0  0  0  0  0  0  0  0  0
    5.3187   -4.5041    0.0000 O   0  0  0  0  0  0  0  0  0  0  0  0
   -2.7512   -5.8366    0.0000 S   0  0  0  0  0  0  0  0  0  0  0  0
   -2.3387   -5.1221    0.0000 O   0  0  0  0  0  0  0  0  0  0  0  0
   -3.1637   -6.5511    0.0000 O   0  0  0  0  0  0  0  0  0  0  0  0
   -3.4656   -5.4241    0.0000 C   0  0  0  0  0  0  0  0  0  0  0  0
   -4.1801   -5.8366    0.0000 C   0  0  0  0  0  0  0  0  0  0  0  0
   -4.8946   -5.4241    0.0000 C   0  0  0  0  0  0  0  0  0  0  0  0
   -4.8946   -4.5991    0.0000 C   0  0  0  0  0  0  0  0  0  0  0  0
   -4.1801   -4.1866    0.0000 C   0  0  0  0  0  0  0  0  0  0  0  0
   -3.4656   -4.5991    0.0000 C   0  0  0  0  0  0  0  0  0  0  0  0
  1  2  1  0  0  0  0
  2  3  1  0  0  0  0
  3  4  2  0  0  0  0
  4  5  1  0  0  0  0
  5  6  2  0  0  0  0
  6  7  1  0  0  0  0
  7  8  2  0  0  0  0
  3  8  1  0  0  0  0
  8  9  1  0  0  0  0
  6 10  1  0  0  0  0
 10 11  2  0  0  0  0
 10 12  1  0  0  0  0
 12 13  1  0  0  0  0
 13 14  2  0  0  0  0
 14 15  1  0  0  0  0
 15 16  2  0  0  0  0
 16 17  1  0  0  0  0
 17 18  2  0  0  0  0
 13 18  1  0  0  0  0
 18 19  1  0  0  0  0
 19 20  1  0  0  0  0
 20 21  1  0  0  0  0
 21 22  1  0  0  0  0
 22 23  1  0  0  0  0
 19 23  1  0  0  0  0
 23 24  2  0  0  0  0
 16 25  1  0  0  0  0
 25 26  1  0  0  0  0
 26 27  1  0  0  0  0
 27 28  1  0  0  0  0
 28 29  1  0  0  0  0
 25 29  1  0  0  0  0
 29 30  2  0  0  0  0
  2 31  1  0  0  0  0
 31 32  2  0  0  0  0
 31 33  2  0  0  0  0
 31 34  1  0  0  0  0
 34 35  2  0  0  0  0
 35 36  1  0  0  0  0
 36 37  2  0  0  0  0
 37 38  1  0  0  0  0
 38 39  2  0  0  0  0
 34 39  1  0  0  0  0
M  END
> <ID>
CPD_4677

$$$$
CPD_4682
  Mrv1822 09091914012D          

 39 43  0  0  0  0            999 V2000
   -1.4201   -0.3805    0.0000 C   0  0  0  0  0  0  0  0  0  0  0  0
   -0.6131   -0.5520    0.0000 N   0  0  0  0  0  0  0  0  0  0  0  0
   -0.2775   -1.3057    0.0000 C   0  0  0  0  0  0  0  0  0  0  0  0
   -0.6900   -2.0202    0.0000 O   0  0  0  0  0  0  0  0  0  0  0  0
    0.5429   -1.2195    0.0000 N   0  0  0  0  0  0  0  0  0  0  0  0
    1.0950   -1.8326    0.0000 C   0  0  0  0  0  0  0  0  0  0  0  0
    0.7145   -0.4125    0.0000 C   0  0  0  0  0  0  0  0  0  0  0  0
    0.0000   -0.0000    0.0000 C   0  0  0  0  0  0  0  0  0  0  0  0
   -0.0000    0.8250    0.0000 C   0  0  0  0  0  0  0  0  0  0  0  0
    0.7145    1.2375    0.0000 C   0  0  0  0  0  0  0  0  0  0  0  0
    1.4289    0.8250    0.0000 C   0  0  0  0  0  0  0  0  0  0  0  0
    2.1434    1.2375    0.0000 N   0  0  0  0  0  0  0  0  0  0  0  0
    2.8579    0.8250    0.0000 C   0  0  0  0  0  0  0  0  0  0  0  0
    2.8579    0.0000    0.0000 O   0  0  0  0  0  0  0  0  0  0  0  0
    3.5724    1.2375    0.0000 C   0  0  0  0  0  0  0  0  0  0  0  0
    4.2868    0.8250    0.0000 O   0  0  0  0  0  0  0  0  0  0  0  0
    5.0013    1.2375    0.0000 C   0  0  0  0  0  0  0  0  0  0  0  0
    5.7158    0.8250    0.0000 C   0  0  0  0  0  0  0  0  0  0  0  0
    5.7158    0.0000    0.0000 O   0  0  0  0  0  0  0  0  0  0  0  0
    6.4302    1.2375    0.0000 N   0  0  0  0  0  0  0  0  0  0  0  0
    7.1447    0.8250    0.0000 C   0  0  0  0  0  0  0  0  0  0  0  0
    7.1447   -0.0000    0.0000 C   0  0  0  0  0  0  0  0  0  0  0  0
    7.8592   -0.4125    0.0000 C   0  0  0  0  0  0  0  0  0  0  0  0
    8.5737   -0.0000    0.0000 C   0  0  0  0  0  0  0  0  0  0  0  0
    8.5737    0.8250    0.0000 C   0  0  0  0  0  0  0  0  0  0  0  0
    7.8592    1.2375    0.0000 C   0  0  0  0  0  0  0  0  0  0  0  0
    7.8592    2.0625    0.0000 N   0  0  0  0  0  0  0  0  0  0  0  0
    8.5266    2.5474    0.0000 C   0  0  0  0  0  0  0  0  0  0  0  0
    8.2717    3.3320    0.0000 C   0  0  0  0  0  0  0  0  0  0  0  0
    7.4467    3.3320    0.0000 C   0  0  0  0  0  0  0  0  0  0  0  0
    7.1917    2.5474    0.0000 C   0  0  0  0  0  0  0  0  0  0  0  0
    6.4071    2.2925    0.0000 O   0  0  0  0  0  0  0  0  0  0  0  0
    9.2881   -0.4125    0.0000 N   0  0  0  0  0  0  0  0  0  0  0  0
   10.0418   -0.0769    0.0000 C   0  0  0  0  0  0  0  0  0  0  0  0
   10.5938   -0.6900    0.0000 C   0  0  0  0  0  0  0  0  0  0  0  0
   10.1813   -1.4045    0.0000 C   0  0  0  0  0  0  0  0  0  0  0  0
    9.3744   -1.2330    0.0000 C   0  0  0  0  0  0  0  0  0  0  0  0
    8.7613   -1.7850    0.0000 O   0  0  0  0  0  0  0  0  0  0  0  0
    1.4289    0.0000    0.0000 C   0  0  0  0  0  0  0  0  0  0  0  0
  1  2  1  0  0  0  0
  2  3  1  0  0  0  0
  3  4  2  0  0  0  0
  3  5  1  0  0  0  0
  5  6  1  0  0  0  0
  5  7  1  0  0  0  0
  7  8  2  0  0  0  0
  2  8  1  0  0  0  0
  8  9  1  0  0  0  0
  9 10  2  0  0  0  0
 10 11  1  0  0  0  0
 11 12  1  0  0  0  0
 12 13  1  0  0  0  0
 13 14  2  0  0  0  0
 13 15  1  0  0  0  0
 15 16  1  0  0  0  0
 16 17  1  0  0  0  0
 17 18  1  0  0  0  0
 18 19  2  0  0  0  0
 18 20  1  0  0  0  0
 20 21  1  0  0  0  0
 21 22  2  0  0  0  0
 22 23  1  0  0  0  0
 23 24  2  0  0  0  0
 24 25  1  0  0  0  0
 25 26  2  0  0  0  0
 21 26  1  0  0  0  0
 26 27  1  0  0  0  0
 27 28  1  0  0  0  0
 28 29  1  0  0  0  0
 29 30  1  0  0  0  0
 30 31  1  0  0  0  0
 27 31  1  0  0  0  0
 31 32  2  0  0  0  0
 24 33  1  0  0  0  0
 33 34  1  0  0  0  0
 34 35  1  0  0  0  0
 35 36  1  0  0  0  0
 36 37  1  0  0  0  0
 33 37  1  0  0  0  0
 37 38  2  0  0  0  0
 11 39  2  0  0  0  0
  7 39  1  0  0  0  0
M  END
> <ID>
CPD_4682

$$$$
CPD_4687
  Mrv1822 09091914012D          

 29 31  0  0  0  0            999 V2000
   -0.7145   -6.1875    0.0000 C   0  0  0  0  0  0  0  0  0  0  0  0
   -0.7145   -5.3625    0.0000 C   0  0  0  0  0  0  0  0  0  0  0  0
    0.0000   -4.9500    0.0000 C   0  0  0  0  0  0  0  0  0  0  0  0
    0.0000   -4.1250    0.0000 C   0  0  0  0  0  0  0  0  0  0  0  0
    0.7145   -3.7125    0.0000 C   0  0  0  0  0  0  0  0  0  0  0  0
    1.4289   -4.1250    0.0000 C   0  0  0  0  0  0  0  0  0  0  0  0
    1.4289   -4.9500    0.0000 C   0  0  0  0  0  0  0  0  0  0  0  0
    0.7145   -5.3625    0.0000 C   0  0  0  0  0  0  0  0  0  0  0  0
    2.1434   -3.7125    0.0000 C   0  0  0  0  0  0  0  0  0  0  0  0
    2.1434   -2.8875    0.0000 O   0  0  0  0  0  0  0  0  0  0  0  0
    2.8579   -4.1250    0.0000 N   0  0  0  0  0  0  0  0  0  0  0  0
    3.5724   -3.7125    0.0000 C   0  0  0  0  0  0  0  0  0  0  0  0
    4.2868   -4.1250    0.0000 C   0  0  0  0  0  0  0  0  0  0  0  0
    4.2868   -4.9500    0.0000 O   0  0  0  0  0  0  0  0  0  0  0  0
    5.0013   -3.7125    0.0000 N   0  0  0  0  0  0  0  0  0  0  0  0
    5.7158   -4.1250    0.0000 C   0  0  0  0  0  0  0  0  0  0  0  0
    6.4302   -3.7125    0.0000 C   0  0  0  0  0  0  0  0  0  0  0  0
    7.1447   -4.1250    0.0000 C   0  0  0  0  0  0  0  0  0  0  0  0
    7.1447   -4.9500    0.0000 C   0  0  0  0  0  0  0  0  0  0  0  0
    7.8592   -5.3625    0.0000 N   0  0  0  0  0  0  0  0  0  0  0  0
    8.5737   -4.9500    0.0000 C   0  0  0  0  0  0  0  0  0  0  0  0
    8.5737   -4.1250    0.0000 O   0  0  0  0  0  0  0  0  0  0  0  0
    9.2881   -5.3625    0.0000 C   0  0  0  0  0  0  0  0  0  0  0  0
   10.0418   -5.0269    0.0000 C   0  0  0  0  0  0  0  0  0  0  0  0
   10.5938   -5.6400    0.0000 C   0  0  0  0  0  0  0  0  0  0  0  0
   10.1813   -6.3545    0.0000 C   0  0  0  0  0  0  0  0  0  0  0  0
    9.3744   -6.1830    0.0000 O   0  0  0  0  0  0  0  0  0  0  0  0
    6.4302   -5.3625    0.0000 C   0  0  0  0  0  0  0  0  0  0  0  0
    5.7158   -4.9500    0.0000 C   0  0  0  0  0  0  0  0  0  0  0  0
  1  2  1  0  0  0  0
  2  3  1  0  0  0  0
  3  4  2  0  0  0  0
  4  5  1  0  0  0  0
  5  6  2  0  0  0  0
  6  7  1  0  0  0  0
  7  8  2  0  0  0  0
  3  8  1  0  0  0  0
  6  9  1  0  0  0  0
  9 10  2  0  0  0  0
  9 11  1  0  0  0  0
 11 12  1  0  0  0  0
 12 13  1  0  0  0  0
 13 14  2  0  0  0  0
 13 15  1  0  0  0  0
 15 16  1  0  0  0  0
 16 17  2  0  0  0  0
 17 18  1  0  0  0  0
 18 19  2  0  0  0  0
 19 20  1  0  0  0  0
 20 21  1  0  0  0  0
 21 22  2  0  0  0  0
 21 23  1  0  0  0  0
 23 24  2  0  0  0  0
 24 25  1  0  0  0  0
 25 26  2  0  0  0  0
 26 27  1  0  0  0  0
 23 27  1  0  0  0  0
 19 28  1  0  0  0  0
 28 29  2  0  0  0  0
 16 29  1  0  0  0  0
M  END
> <ID>
CPD_4687

$$$$
CPD_4692
  Mrv1822 09091914012D          

 27 29  0  0  0  0            999 V2000
    4.2868   -4.9500    0.0000 O   0  0  0  0  0  0  0  0  0  0  0  0
    4.2868   -4.1250    0.0000 C   0  0  0  0  0  0  0  0  0  0  0  0
    3.5724   -3.7125    0.0000 C   0  0  0  0  0  0  0  0  0  0  0  0
    2.8579   -4.1250    0.0000 N   0  0  0  0  0  0  0  0  0  0  0  0
    2.1434   -3.7125    0.0000 C   0  0  0  0  0  0  0  0  0  0  0  0
    2.1434   -2.8875    0.0000 O   0  0  0  0  0  0  0  0  0  0  0  0
    1.4289   -4.1250    0.0000 C   0  0  0  0  0  0  0  0  0  0  0  0
    1.4289   -4.9500    0.0000 C   0  0  0  0  0  0  0  0  0  0  0  0
    0.7145   -5.3625    0.0000 C   0  0  0  0  0  0  0  0  0  0  0  0
    0.0000   -4.9500    0.0000 C   0  0  0  0  0  0  0  0  0  0  0  0
    0.0000   -4.1250    0.0000 C   0  0  0  0  0  0  0  0  0  0  0  0
    0.7145   -3.7125    0.0000 N   0  0  0  0  0  0  0  0  0  0  0  0
    5.0013   -3.7125    0.0000 N   0  0  0  0  0  0  0  0  0  0  0  0
    5.7158   -4.1250    0.0000 C   0  0  0  0  0  0  0  0  0  0  0  0
    6.4302   -3.7125    0.0000 C   0  0  0  0  0  0  0  0  0  0  0  0
    7.1447   -4.1250    0.0000 C   0  0  0  0  0  0  0  0  0  0  0  0
    7.1447   -4.9500    0.0000 C   0  0  0  0  0  0  0  0  0  0  0  0
    7.8592   -5.3625    0.0000 N   0  0  0  0  0  0  0  0  0  0  0  0
    8.5737   -4.9500    0.0000 C   0  0  0  0  0  0  0  0  0  0  0  0
    8.5737   -4.1250    0.0000 O   0  0  0  0  0  0  0  0  0  0  0  0
    9.2881   -5.3625    0.0000 C   0  0  0  0  0  0  0  0  0  0  0  0
   10.0418   -5.0269    0.0000 C   0  0  0  0  0  0  0  0  0  0  0  0
   10.5938   -5.6400    0.0000 C   0  0  0  0  0  0  0  0  0  0  0  0
   10.1813   -6.3545    0.0000 C   0  0  0  0  0  0  0  0  0  0  0  0
    9.3744   -6.1830    0.0000 O   0  0  0  0  0  0  0  0  0  0  0  0
    6.4302   -5.3625    0.0000 C   0  0  0  0  0  0  0  0  0  0  0  0
    5.7158   -4.9500    0.0000 C   0  0  0  0  0  0  0  0  0  0  0  0
  1  2  2  0  0  0  0
  2  3  1  0  0  0  0
  3  4  1  0  0  0  0
  4  5  1  0  0  0  0
  5  6  2  0  0  0  0
  5  7  1  0  0  0  0
  7  8  2  0  0  0  0
  8  9  1  0  0  0  0
  9 10  2  0  0  0  0
 10 11  1  0  0  0  0
 11 12  2  0  0  0  0
  7 12  1  0  0  0  0
  2 13  1  0  0  0  0
 13 14  1  0  0  0  0
 14 15  2  0  0  0  0
 15 16  1  0  0  0  0
 16 17  2  0  0  0  0
 17 18  1  0  0  0  0
 18 19  1  0  0  0  0
 19 20  2  0  0  0  0
 19 21  1  0  0  0  0
 21 22  2  0  0  0  0
 22 23  1  0  0  0  0
 23 24  2  0  0  0  0
 24 25  1  0  0  0  0
 21 25  1  0  0  0  0
 17 26  1  0  0  0  0
 26 27  2  0  0  0  0
 14 27  1  0  0  0  0
M  END
> <ID>
CPD_4692

$$$$
CPD_4697
  Mrv1822 09091914012D          

 37 40  0  0  0  0            999 V2000
    0.0000   -9.0750    0.0000 O   0  0  0  0  0  0  0  0  0  0  0  0
   -0.7145   -8.6625    0.0000 C   0  0  0  0  0  0  0  0  0  0  0  0
   -1.4289   -9.0750    0.0000 O   0  0  0  0  0  0  0  0  0  0  0  0
   -0.7145   -7.8375    0.0000 C   0  0  0  0  0  0  0  0  0  0  0  0
   -1.4289   -7.4250    0.0000 C   0  0  0  0  0  0  0  0  0  0  0  0
   -1.4289   -6.6000    0.0000 C   0  0  0  0  0  0  0  0  0  0  0  0
   -0.7145   -6.1875    0.0000 C   0  0  0  0  0  0  0  0  0  0  0  0
   -0.7145   -5.3625    0.0000 O   0  0  0  0  0  0  0  0  0  0  0  0
    0.0000   -4.9500    0.0000 C   0  0  0  0  0  0  0  0  0  0  0  0
    0.0000   -4.1250    0.0000 C   0  0  0  0  0  0  0  0  0  0  0  0
    0.7145   -3.7125    0.0000 C   0  0  0  0  0  0  0  0  0  0  0  0
    1.4289   -4.1250    0.0000 C   0  0  0  0  0  0  0  0  0  0  0  0
    1.4289   -4.9500    0.0000 C   0  0  0  0  0  0  0  0  0  0  0  0
    0.7145   -5.3625    0.0000 C   0  0  0  0  0  0  0  0  0  0  0  0
    2.1434   -3.7125    0.0000 C   0  0  0  0  0  0  0  0  0  0  0  0
    2.1434   -2.8875    0.0000 O   0  0  0  0  0  0  0  0  0  0  0  0
    2.8579   -4.1250    0.0000 N   0  0  0  0  0  0  0  0  0  0  0  0
    3.5724   -3.7125    0.0000 C   0  0  0  0  0  0  0  0  0  0  0  0
    4.2868   -4.1250    0.0000 C   0  0  0  0  0  0  0  0  0  0  0  0
    4.2868   -4.9500    0.0000 O   0  0  0  0  0  0  0  0  0  0  0  0
    5.0013   -3.7125    0.0000 N   0  0  0  0  0  0  0  0  0  0  0  0
    5.7158   -4.1250    0.0000 C   0  0  0  0  0  0  0  0  0  0  0  0
    6.4302   -3.7125    0.0000 C   0  0  0  0  0  0  0  0  0  0  0  0
    7.1447   -4.1250    0.0000 C   0  0  0  0  0  0  0  0  0  0  0  0
    7.1447   -4.9500    0.0000 C   0  0  0  0  0  0  0  0  0  0  0  0
    7.8592   -5.3625    0.0000 N   0  0  0  0  0  0  0  0  0  0  0  0
    8.5737   -4.9500    0.0000 C   0  0  0  0  0  0  0  0  0  0  0  0
    8.5737   -4.1250    0.0000 O   0  0  0  0  0  0  0  0  0  0  0  0
    9.2881   -5.3625    0.0000 C   0  0  0  0  0  0  0  0  0  0  0  0
   10.0418   -5.0269    0.0000 C   0  0  0  0  0  0  0  0  0  0  0  0
   10.5938   -5.6400    0.0000 C   0  0  0  0  0  0  0  0  0  0  0  0
   10.1813   -6.3545    0.0000 C   0  0  0  0  0  0  0  0  0  0  0  0
    9.3744   -6.1830    0.0000 O   0  0  0  0  0  0  0  0  0  0  0  0
    6.4302   -5.3625    0.0000 C   0  0  0  0  0  0  0  0  0  0  0  0
    5.7158   -4.9500    0.0000 C   0  0  0  0  0  0  0  0  0  0  0  0
    0.0000   -6.6000    0.0000 C   0  0  0  0  0  0  0  0  0  0  0  0
    0.0000   -7.4250    0.0000 C   0  0  0  0  0  0  0  0  0  0  0  0
  1  2  1  0  0  0  0
  2  3  2  0  0  0  0
  2  4  1  0  0  0  0
  4  5  2  0  0  0  0
  5  6  1  0  0  0  0
  6  7  2  0  0  0  0
  7  8  1  0  0  0  0
  8  9  1  0  0  0  0
  9 10  2  0  0  0  0
 10 11  1  0  0  0  0
 11 12  2  0  0  0  0
 12 13  1  0  0  0  0
 13 14  2  0  0  0  0
  9 14  1  0  0  0  0
 12 15  1  0  0  0  0
 15 16  2  0  0  0  0
 15 17  1  0  0  0  0
 17 18  1  0  0  0  0
 18 19  1  0  0  0  0
 19 20  2  0  0  0  0
 19 21  1  0  0  0  0
 21 22  1  0  0  0  0
 22 23  2  0  0  0  0
 23 24  1  0  0  0  0
 24 25  2  0  0  0  0
 25 26  1  0  0  0  0
 26 27  1  0  0  0  0
 27 28  2  0  0  0  0
 27 29  1  0  0  0  0
 29 30  2  0  0  0  0
 30 31  1  0  0  0  0
 31 32  2  0  0  0  0
 32 33  1  0  0  0  0
 29 33  1  0  0  0  0
 25 34  1  0  0  0  0
 34 35  2  0  0  0  0
 22 35  1  0  0  0  0
  7 36  1  0  0  0  0
 36 37  2  0  0  0  0
  4 37  1  0  0  0  0
M  END
> <ID>
CPD_4697

$$$$
CPD_4702
  Mrv1822 09091914012D          

 24 26  0  0  0  0            999 V2000
    0.0000   -1.6500    0.0000 C   0  0  0  0  0  0  0  0  0  0  0  0
    0.7145   -1.2375    0.0000 C   0  0  0  0  0  0  0  0  0  0  0  0
    0.7145   -0.4125    0.0000 C   0  0  0  0  0  0  0  0  0  0  0  0
    1.4289    0.0000    0.0000 C   0  0  0  0  0  0  0  0  0  0  0  0
    1.4289    0.8250    0.0000 C   0  0  0  0  0  0  0  0  0  0  0  0
    2.1434    1.2375    0.0000 O   0  0  0  0  0  0  0  0  0  0  0  0
    0.7145    1.2375    0.0000 N   0  0  0  0  0  0  0  0  0  0  0  0
    0.7145    2.0625    0.0000 C   0  0  0  0  0  0  0  0  0  0  0  0
    0.0000    2.4750    0.0000 C   0  0  0  0  0  0  0  0  0  0  0  0
    0.0000    3.3000    0.0000 C   0  0  0  0  0  0  0  0  0  0  0  0
   -0.7145    3.7125    0.0000 C   0  0  0  0  0  0  0  0  0  0  0  0
   -1.4289    4.1250    0.0000 N   0  0  0  0  0  0  0  0  0  0  0  0
    0.7145    3.7125    0.0000 C   0  0  0  0  0  0  0  0  0  0  0  0
    0.7145    4.5375    0.0000 F   0  0  0  0  0  0  0  0  0  0  0  0
    1.4289    3.3000    0.0000 C   0  0  0  0  0  0  0  0  0  0  0  0
    2.1434    3.7125    0.0000 F   0  0  0  0  0  0  0  0  0  0  0  0
    1.4289    2.4750    0.0000 C   0  0  0  0  0  0  0  0  0  0  0  0
    2.1434   -0.4125    0.0000 C   0  0  0  0  0  0  0  0  0  0  0  0
    2.8579    0.0000    0.0000 C   0  0  0  0  0  0  0  0  0  0  0  0
    3.5724   -0.4125    0.0000 C   0  0  0  0  0  0  0  0  0  0  0  0
    3.5724   -1.2375    0.0000 C   0  0  0  0  0  0  0  0  0  0  0  0
    2.8579   -1.6500    0.0000 C   0  0  0  0  0  0  0  0  0  0  0  0
    2.1434   -1.2375    0.0000 C   0  0  0  0  0  0  0  0  0  0  0  0
    1.4289   -1.6500    0.0000 N   0  0  0  0  0  0  0  0  0  0  0  0
  1  2  1  0  0  0  0
  2  3  2  0  0  0  0
  3  4  1  0  0  0  0
  4  5  1  0  0  0  0
  5  6  2  0  0  0  0
  5  7  1  0  0  0  0
  7  8  1  0  0  0  0
  8  9  2  0  0  0  0
  9 10  1  0  0  0  0
 10 11  1  0  0  0  0
 11 12  3  0  0  0  0
 10 13  2  0  0  0  0
 13 14  1  0  0  0  0
 13 15  1  0  0  0  0
 15 16  1  0  0  0  0
 15 17  2  0  0  0  0
  8 17  1  0  0  0  0
  4 18  2  0  0  0  0
 18 19  1  0  0  0  0
 19 20  2  0  0  0  0
 20 21  1  0  0  0  0
 21 22  2  0  0  0  0
 22 23  1  0  0  0  0
 18 23  1  0  0  0  0
 23 24  2  0  0  0  0
  2 24  1  0  0  0  0
M  END
> <ID>
CPD_4702

$$$$
CPD_4707
  Mrv1822 09091914012D          

 28 30  0  0  0  0            999 V2000
    3.4656   -2.9491    0.0000 C   0  0  0  0  0  0  0  0  0  0  0  0
    4.1801   -2.5366    0.0000 C   0  0  0  0  0  0  0  0  0  0  0  0
    4.1801   -1.7116    0.0000 C   0  0  0  0  0  0  0  0  0  0  0  0
    4.8946   -1.2991    0.0000 C   0  0  0  0  0  0  0  0  0  0  0  0
    5.6091   -1.7116    0.0000 C   0  0  0  0  0  0  0  0  0  0  0  0
    5.6091   -2.5366    0.0000 C   0  0  0  0  0  0  0  0  0  0  0  0
    4.8946   -2.9491    0.0000 C   0  0  0  0  0  0  0  0  0  0  0  0
    4.8946   -3.7741    0.0000 N   0  0  0  0  0  0  0  0  0  0  0  0
    4.1801   -4.1866    0.0000 C   0  0  0  0  0  0  0  0  0  0  0  0
    3.4656   -3.7741    0.0000 O   0  0  0  0  0  0  0  0  0  0  0  0
    4.1801   -5.0116    0.0000 C   0  0  0  0  0  0  0  0  0  0  0  0
    4.8476   -5.4965    0.0000 C   0  0  0  0  0  0  0  0  0  0  0  0
    4.5926   -6.2812    0.0000 C   0  0  0  0  0  0  0  0  0  0  0  0
    3.7676   -6.2812    0.0000 C   0  0  0  0  0  0  0  0  0  0  0  0
    3.5127   -5.4965    0.0000 O   0  0  0  0  0  0  0  0  0  0  0  0
    6.3235   -1.2991    0.0000 C   0  0  0  0  0  0  0  0  0  0  0  0
    7.0380   -1.7116    0.0000 O   0  0  0  0  0  0  0  0  0  0  0  0
    6.3235   -0.4741    0.0000 N   0  0  0  0  0  0  0  0  0  0  0  0
    7.0380   -0.0616    0.0000 C   0  0  0  0  0  0  0  0  0  0  0  0
    7.0380    0.7634    0.0000 C   0  0  0  0  0  0  0  0  0  0  0  0
    7.7525    1.1759    0.0000 C   0  0  0  0  0  0  0  0  0  0  0  0
    7.7525    2.0009    0.0000 C   0  0  0  0  0  0  0  0  0  0  0  0
    7.7525    2.8259    0.0000 N   0  0  0  0  0  0  0  0  0  0  0  0
    8.4669    0.7634    0.0000 C   0  0  0  0  0  0  0  0  0  0  0  0
    9.1814    1.1759    0.0000 F   0  0  0  0  0  0  0  0  0  0  0  0
    8.4669   -0.0616    0.0000 C   0  0  0  0  0  0  0  0  0  0  0  0
    9.1814   -0.4741    0.0000 F   0  0  0  0  0  0  0  0  0  0  0  0
    7.7525   -0.4741    0.0000 C   0  0  0  0  0  0  0  0  0  0  0  0
  1  2  1  0  0  0  0
  2  3  2  0  0  0  0
  3  4  1  0  0  0  0
  4  5  2  0  0  0  0
  5  6  1  0  0  0  0
  6  7  2  0  0  0  0
  2  7  1  0  0  0  0
  7  8  1  0  0  0  0
  8  9  1  0  0  0  0
  9 10  2  0  0  0  0
  9 11  1  0  0  0  0
 11 12  1  0  0  0  0
 12 13  1  0  0  0  0
 13 14  1  0  0  0  0
 14 15  1  0  0  0  0
 11 15  1  0  0  0  0
  5 16  1  0  0  0  0
 16 17  2  0  0  0  0
 16 18  1  0  0  0  0
 18 19  1  0  0  0  0
 19 20  2  0  0  0  0
 20 21  1  0  0  0  0
 21 22  1  0  0  0  0
 22 23  3  0  0  0  0
 21 24  2  0  0  0  0
 24 25  1  0  0  0  0
 24 26  1  0  0  0  0
 26 27  1  0  0  0  0
 26 28  2  0  0  0  0
 19 28  1  0  0  0  0
M  END
> <ID>
CPD_4707

$$$$
CPD_4712
  Mrv1822 09091914012D          

 28 32  0  0  0  0            999 V2000
    0.4606    1.0897    0.0000 C   0  0  0  0  0  0  0  0  0  0  0  0
   -0.0914    1.7028    0.0000 N   0  0  0  0  0  0  0  0  0  0  0  0
    0.1714    2.6213    0.0000 C   0  0  0  0  0  0  0  0  0  0  0  0
   -0.6444    2.4984    0.0000 C   0  0  0  0  0  0  0  0  0  0  0  0
   -1.0569    1.7839    0.0000 C   0  0  0  0  0  0  0  0  0  0  0  0
   -0.7555    1.0159    0.0000 C   0  0  0  0  0  0  0  0  0  0  0  0
    0.0328    0.7728    0.0000 C   0  0  0  0  0  0  0  0  0  0  0  0
    0.7145    1.2375    0.0000 N   0  0  0  0  0  0  0  0  0  0  0  0
    0.7761    2.0602    0.0000 C   0  0  0  0  0  0  0  0  0  0  0  0
    1.4289    0.8250    0.0000 C   0  0  0  0  0  0  0  0  0  0  0  0
    2.1434    1.2375    0.0000 O   0  0  0  0  0  0  0  0  0  0  0  0
    1.4289    0.0000    0.0000 C   0  0  0  0  0  0  0  0  0  0  0  0
    2.1434   -0.4125    0.0000 C   0  0  0  0  0  0  0  0  0  0  0  0
    2.8579    0.0000    0.0000 C   0  0  0  0  0  0  0  0  0  0  0  0
    3.5724   -0.4125    0.0000 C   0  0  0  0  0  0  0  0  0  0  0  0
    3.5724   -1.2375    0.0000 C   0  0  0  0  0  0  0  0  0  0  0  0
    2.8579   -1.6500    0.0000 C   0  0  0  0  0  0  0  0  0  0  0  0
    2.1434   -1.2375    0.0000 C   0  0  0  0  0  0  0  0  0  0  0  0
    1.4289   -1.6500    0.0000 N   0  0  0  0  0  0  0  0  0  0  0  0
    0.7145   -1.2375    0.0000 C   0  0  0  0  0  0  0  0  0  0  0  0
    0.7145   -0.4125    0.0000 C   0  0  0  0  0  0  0  0  0  0  0  0
    0.0000   -1.6500    0.0000 C   0  0  0  0  0  0  0  0  0  0  0  0
   -0.7145   -1.2375    0.0000 C   0  0  0  0  0  0  0  0  0  0  0  0
   -1.4289   -1.6500    0.0000 C   0  0  0  0  0  0  0  0  0  0  0  0
   -1.4289   -2.4750    0.0000 C   0  0  0  0  0  0  0  0  0  0  0  0
   -0.7145   -2.8875    0.0000 C   0  0  0  0  0  0  0  0  0  0  0  0
   -0.7145   -3.7125    0.0000 O   0  0  0  0  0  0  0  0  0  0  0  0
    0.0000   -2.4750    0.0000 C   0  0  0  0  0  0  0  0  0  0  0  0
  1  2  1  0  0  0  0
  2  3  1  0  0  0  0
  3  4  1  0  0  0  0
  4  5  1  0  0  0  0
  5  6  1  0  0  0  0
  2  6  1  0  0  0  0
  6  7  1  0  0  0  0
  7  8  1  0  0  0  0
  8  9  1  0  0  0  0
  3  9  1  0  0  0  0
  8 10  1  0  0  0  0
 10 11  2  0  0  0  0
 10 12  1  0  0  0  0
 12 13  2  0  0  0  0
 13 14  1  0  0  0  0
 14 15  2  0  0  0  0
 15 16  1  0  0  0  0
 16 17  2  0  0  0  0
 17 18  1  0  0  0  0
 13 18  1  0  0  0  0
 18 19  2  0  0  0  0
 19 20  1  0  0  0  0
 20 21  2  0  0  0  0
 12 21  1  0  0  0  0
 20 22  1  0  0  0  0
 22 23  2  0  0  0  0
 23 24  1  0  0  0  0
 24 25  2  0  0  0  0
 25 26  1  0  0  0  0
 26 27  1  0  0  0  0
 26 28  2  0  0  0  0
 22 28  1  0  0  0  0
M  END
> <ID>
CPD_4712

$$$$
CPD_4717
  Mrv1822 09091914012D          

 24 26  0  0  0  0            999 V2000
   -4.5871   -3.8999    0.0000 C   0  0  0  0  0  0  0  0  0  0  0  0
   -3.8726   -4.3124    0.0000 C   0  0  0  0  0  0  0  0  0  0  0  0
   -3.1582   -3.8999    0.0000 C   0  0  0  0  0  0  0  0  0  0  0  0
   -2.4437   -4.3124    0.0000 C   0  0  0  0  0  0  0  0  0  0  0  0
   -1.7292   -3.8999    0.0000 O   0  0  0  0  0  0  0  0  0  0  0  0
   -1.0147   -4.3124    0.0000 C   0  0  0  0  0  0  0  0  0  0  0  0
   -0.3003   -3.8999    0.0000 C   0  0  0  0  0  0  0  0  0  0  0  0
    0.4142   -4.3124    0.0000 C   0  0  0  0  0  0  0  0  0  0  0  0
    0.4142   -5.1374    0.0000 C   0  0  0  0  0  0  0  0  0  0  0  0
   -0.3003   -5.5499    0.0000 C   0  0  0  0  0  0  0  0  0  0  0  0
   -1.0147   -5.1374    0.0000 C   0  0  0  0  0  0  0  0  0  0  0  0
   -1.7292   -5.5499    0.0000 O   0  0  0  0  0  0  0  0  0  0  0  0
   -2.4437   -5.1374    0.0000 C   0  0  0  0  0  0  0  0  0  0  0  0
    1.1287   -3.8999    0.0000 C   0  0  0  0  0  0  0  0  0  0  0  0
    1.1287   -3.0749    0.0000 O   0  0  0  0  0  0  0  0  0  0  0  0
    1.8431   -4.3124    0.0000 N   0  0  0  0  0  0  0  0  0  0  0  0
    1.7815   -5.1351    0.0000 C   0  0  0  0  0  0  0  0  0  0  0  0
    2.3863   -5.6962    0.0000 C   0  0  0  0  0  0  0  0  0  0  0  0
    3.2020   -5.5733    0.0000 C   0  0  0  0  0  0  0  0  0  0  0  0
    3.6145   -4.8588    0.0000 C   0  0  0  0  0  0  0  0  0  0  0  0
    3.3131   -4.0908    0.0000 C   0  0  0  0  0  0  0  0  0  0  0  0
    2.5248   -3.8477    0.0000 C   0  0  0  0  0  0  0  0  0  0  0  0
    3.0504   -5.0094    0.0000 N   0  0  0  0  0  0  0  0  0  0  0  0
    3.7648   -5.4219    0.0000 C   0  0  0  0  0  0  0  0  0  0  0  0
  1  2  1  0  0  0  0
  2  3  1  0  0  0  0
  3  4  1  0  0  0  0
  4  5  1  0  0  0  0
  5  6  1  0  0  0  0
  6  7  2  0  0  0  0
  7  8  1  0  0  0  0
  8  9  2  0  0  0  0
  9 10  1  0  0  0  0
 10 11  2  0  0  0  0
  6 11  1  0  0  0  0
 11 12  1  0  0  0  0
 12 13  1  0  0  0  0
  8 14  1  0  0  0  0
 14 15  2  0  0  0  0
 14 16  1  0  0  0  0
 16 17  1  0  0  0  0
 17 18  1  0  0  0  0
 18 19  1  0  0  0  0
 19 20  1  0  0  0  0
 20 21  1  0  0  0  0
 21 22  1  0  0  0  0
 16 22  1  0  0  0  0
 21 23  1  0  0  0  0
 18 23  1  0  0  0  0
 23 24  1  0  0  0  0
M  END
> <ID>
CPD_4717

$$$$
CPD_4722
  Mrv1822 09091914012D          

 25 28  0  0  0  0            999 V2000
   -0.2549    2.6209    0.0000 C   0  0  0  0  0  0  0  0  0  0  0  0
    0.0000    3.4055    0.0000 N   0  0  0  0  0  0  0  0  0  0  0  0
    0.9269    3.6373    0.0000 C   0  0  0  0  0  0  0  0  0  0  0  0
    0.4125    4.2823    0.0000 C   0  0  0  0  0  0  0  0  0  0  0  0
   -0.4125    4.2823    0.0000 C   0  0  0  0  0  0  0  0  0  0  0  0
   -0.9269    3.6373    0.0000 C   0  0  0  0  0  0  0  0  0  0  0  0
   -0.7433    2.8330    0.0000 C   0  0  0  0  0  0  0  0  0  0  0  0
    0.0000    2.4750    0.0000 N   0  0  0  0  0  0  0  0  0  0  0  0
    0.7433    2.8330    0.0000 C   0  0  0  0  0  0  0  0  0  0  0  0
    0.0000    1.6500    0.0000 C   0  0  0  0  0  0  0  0  0  0  0  0
   -0.7145    1.2375    0.0000 O   0  0  0  0  0  0  0  0  0  0  0  0
    0.7145    1.2375    0.0000 C   0  0  0  0  0  0  0  0  0  0  0  0
    0.3020    0.5230    0.0000 C   0  0  0  0  0  0  0  0  0  0  0  0
    1.1270    1.9520    0.0000 C   0  0  0  0  0  0  0  0  0  0  0  0
    1.4289    0.8250    0.0000 O   0  0  0  0  0  0  0  0  0  0  0  0
    1.4289    0.0000    0.0000 C   0  0  0  0  0  0  0  0  0  0  0  0
    2.1434   -0.4125    0.0000 C   0  0  0  0  0  0  0  0  0  0  0  0
    2.8579    0.0000    0.0000 C   0  0  0  0  0  0  0  0  0  0  0  0
    3.5724   -0.4125    0.0000 C   0  0  0  0  0  0  0  0  0  0  0  0
    3.5724   -1.2375    0.0000 C   0  0  0  0  0  0  0  0  0  0  0  0
    2.8579   -1.6500    0.0000 C   0  0  0  0  0  0  0  0  0  0  0  0
    2.1434   -1.2375    0.0000 C   0  0  0  0  0  0  0  0  0  0  0  0
    1.4289   -1.6500    0.0000 C   0  0  0  0  0  0  0  0  0  0  0  0
    0.7145   -1.2375    0.0000 C   0  0  0  0  0  0  0  0  0  0  0  0
    0.7145   -0.4125    0.0000 C   0  0  0  0  0  0  0  0  0  0  0  0
  1  2  1  0  0  0  0
  2  3  1  0  0  0  0
  3  4  1  0  0  0  0
  4  5  1  0  0  0  0
  5  6  1  0  0  0  0
  2  6  1  0  0  0  0
  6  7  1  0  0  0  0
  7  8  1  0  0  0  0
  8  9  1  0  0  0  0
  3  9  1  0  0  0  0
  8 10  1  0  0  0  0
 10 11  2  0  0  0  0
 10 12  1  0  0  0  0
 12 13  1  0  0  0  0
 12 14  1  0  0  0  0
 12 15  1  0  0  0  0
 15 16  1  0  0  0  0
 16 17  2  0  0  0  0
 17 18  1  0  0  0  0
 18 19  2  0  0  0  0
 19 20  1  0  0  0  0
 20 21  2  0  0  0  0
 21 22  1  0  0  0  0
 17 22  1  0  0  0  0
 22 23  2  0  0  0  0
 23 24  1  0  0  0  0
 24 25  2  0  0  0  0
 16 25  1  0  0  0  0
M  END
> <ID>
CPD_4722

$$$$
CPD_4727
  Mrv1822 09091914012D          

 27 29  0  0  1  0            999 V2000
    0.8517   -2.4835    0.0000 H   0  0  0  0  0  0  0  0  0  0  0  0
    0.8517   -1.6585    0.0000 C   0  0  1  0  0  0  0  0  0  0  0  0
    0.1163   -2.0322    0.0000 C   0  0  0  0  0  0  0  0  0  0  0  0
    0.5657   -1.2419    0.0000 C   0  0  2  0  0  0  0  0  0  0  0  0
   -0.2319   -1.0310    0.0000 H   0  0  0  0  0  0  0  0  0  0  0  0
    1.3012   -1.6156    0.0000 C   0  0  0  0  0  0  0  0  0  0  0  0
    2.0368   -1.2419    0.0000 C   0  0  2  0  0  0  0  0  0  0  0  0
    2.8344   -1.4529    0.0000 C   0  0  0  0  0  0  0  0  0  0  0  0
    1.5873   -2.0322    0.0000 C   0  0  0  0  0  0  0  0  0  0  0  0
    2.0368   -0.4945    0.0000 C   0  0  0  0  0  0  0  0  0  0  0  0
    1.3012   -0.1208    0.0000 C   0  0  2  0  0  0  0  0  0  0  0  0
    0.8517   -0.9111    0.0000 C   0  0  0  0  0  0  0  0  0  0  0  0
    0.5657   -0.4945    0.0000 C   0  0  0  0  0  0  0  0  0  0  0  0
    1.3012    0.7042    0.0000 N   0  0  0  0  0  0  0  0  0  0  0  0
    2.0156    1.1167    0.0000 C   0  0  0  0  0  0  0  0  0  0  0  0
    2.7301    0.7042    0.0000 O   0  0  0  0  0  0  0  0  0  0  0  0
    2.0156    1.9417    0.0000 C   0  0  2  0  0  0  0  0  0  0  0  0
    1.3011    2.3542    0.0000 C   0  0  0  0  0  0  0  0  0  0  0  0
    1.3011    3.1792    0.0000 C   0  0  0  0  0  0  0  0  0  0  0  0
    2.7301    2.3542    0.0000 N   0  0  0  0  0  0  0  0  0  0  0  0
    2.7301    3.1792    0.0000 C   0  0  0  0  0  0  0  0  0  0  0  0
    2.0156    3.5917    0.0000 O   0  0  0  0  0  0  0  0  0  0  0  0
    3.4445    3.5918    0.0000 O   0  0  0  0  0  0  0  0  0  0  0  0
    3.4445    4.4168    0.0000 C   0  0  0  0  0  0  0  0  0  0  0  0
    3.4445    5.2418    0.0000 C   0  0  0  0  0  0  0  0  0  0  0  0
    4.2695    4.4168    0.0000 C   0  0  0  0  0  0  0  0  0  0  0  0
    2.6195    4.4167    0.0000 C   0  0  0  0  0  0  0  0  0  0  0  0
  2  1  1  1  0  0  0
  2  3  1  0  0  0  0
  4  3  1  0  0  0  0
  4  5  1  6  0  0  0
  4  6  1  0  0  0  0
  7  6  1  0  0  0  0
  7  8  1  6  0  0  0
  7  9  1  0  0  0  0
  2  9  1  0  0  0  0
 11 13  1  0  0  0  0
 11 10  1  0  0  0  0
 11 12  1  0  0  0  0
  2 12  1  0  0  0  0
  7 10  1  0  0  0  0
  4 13  1  0  0  0  0
 11 14  1  1  0  0  0
 14 15  1  0  0  0  0
 15 16  2  0  0  0  0
 17 15  1  0  0  0  0
 17 18  1  0  0  0  0
 18 19  1  0  0  0  0
 17 20  1  6  0  0  0
 20 21  1  0  0  0  0
 21 22  2  0  0  0  0
 21 23  1  0  0  0  0
 23 24  1  0  0  0  0
 24 25  1  0  0  0  0
 24 26  1  0  0  0  0
 24 27  1  0  0  0  0
M  END
> <ID>
CPD_4727

$$$$
CPD_4732
  Mrv1822 09091914012D          

 24 27  0  0  1  0            999 V2000
    0.8517   -2.4835    0.0000 H   0  0  0  0  0  0  0  0  0  0  0  0
    0.8517   -1.6585    0.0000 C   0  0  1  0  0  0  0  0  0  0  0  0
    0.1163   -2.0322    0.0000 C   0  0  0  0  0  0  0  0  0  0  0  0
    0.5657   -1.2419    0.0000 C   0  0  2  0  0  0  0  0  0  0  0  0
   -0.2319   -1.0310    0.0000 H   0  0  0  0  0  0  0  0  0  0  0  0
    1.3012   -1.6156    0.0000 C   0  0  0  0  0  0  0  0  0  0  0  0
    2.0368   -1.2419    0.0000 C   0  0  2  0  0  0  0  0  0  0  0  0
    2.8344   -1.4529    0.0000 C   0  0  0  0  0  0  0  0  0  0  0  0
    1.5873   -2.0322    0.0000 C   0  0  0  0  0  0  0  0  0  0  0  0
    2.0368   -0.4945    0.0000 C   0  0  0  0  0  0  0  0  0  0  0  0
    1.3012   -0.1208    0.0000 C   0  0  2  0  0  0  0  0  0  0  0  0
    0.8517   -0.9111    0.0000 C   0  0  0  0  0  0  0  0  0  0  0  0
    0.5657   -0.4945    0.0000 C   0  0  0  0  0  0  0  0  0  0  0  0
    1.3012    0.7042    0.0000 N   0  0  0  0  0  0  0  0  0  0  0  0
    2.0156    1.1167    0.0000 C   0  0  0  0  0  0  0  0  0  0  0  0
    2.7301    0.7042    0.0000 O   0  0  0  0  0  0  0  0  0  0  0  0
    2.0156    1.9417    0.0000 C   0  0  0  0  0  0  0  0  0  0  0  0
    2.7301    2.3542    0.0000 N   0  0  0  0  0  0  0  0  0  0  0  0
    2.8163    3.1747    0.0000 C   0  0  0  0  0  0  0  0  0  0  0  0
    2.2032    3.7267    0.0000 C   0  0  0  0  0  0  0  0  0  0  0  0
    3.6233    3.3463    0.0000 C   0  0  0  0  0  0  0  0  0  0  0  0
    4.0358    2.6318    0.0000 C   0  0  0  0  0  0  0  0  0  0  0  0
    3.4838    2.0187    0.0000 C   0  0  0  0  0  0  0  0  0  0  0  0
    3.6553    1.2117    0.0000 C   0  0  0  0  0  0  0  0  0  0  0  0
  2  1  1  1  0  0  0
  2  3  1  0  0  0  0
  4  3  1  0  0  0  0
  4  5  1  6  0  0  0
  4  6  1  0  0  0  0
  7  6  1  0  0  0  0
  7  8  1  6  0  0  0
  7  9  1  0  0  0  0
  2  9  1  0  0  0  0
 11 13  1  0  0  0  0
 11 10  1  0  0  0  0
 11 12  1  0  0  0  0
  2 12  1  0  0  0  0
  7 10  1  0  0  0  0
  4 13  1  0  0  0  0
 11 14  1  1  0  0  0
 14 15  1  0  0  0  0
 15 16  2  0  0  0  0
 15 17  1  0  0  0  0
 17 18  1  0  0  0  0
 18 19  1  0  0  0  0
 19 20  1  0  0  0  0
 19 21  2  0  0  0  0
 21 22  1  0  0  0  0
 22 23  2  0  0  0  0
 18 23  1  0  0  0  0
 23 24  1  0  0  0  0
M  END
> <ID>
CPD_4732

$$$$
CPD_4737
  Mrv1822 09091914012D          

 21 23  0  0  1  0            999 V2000
    0.8517   -2.4835    0.0000 H   0  0  0  0  0  0  0  0  0  0  0  0
    0.8517   -1.6585    0.0000 C   0  0  1  0  0  0  0  0  0  0  0  0
    0.1163   -2.0322    0.0000 C   0  0  0  0  0  0  0  0  0  0  0  0
    0.5657   -1.2419    0.0000 C   0  0  2  0  0  0  0  0  0  0  0  0
   -0.2319   -1.0310    0.0000 H   0  0  0  0  0  0  0  0  0  0  0  0
    1.3012   -1.6156    0.0000 C   0  0  0  0  0  0  0  0  0  0  0  0
    2.0368   -1.2419    0.0000 C   0  0  2  0  0  0  0  0  0  0  0  0
    2.8344   -1.4529    0.0000 C   0  0  0  0  0  0  0  0  0  0  0  0
    1.5873   -2.0322    0.0000 C   0  0  0  0  0  0  0  0  0  0  0  0
    2.0368   -0.4945    0.0000 C   0  0  0  0  0  0  0  0  0  0  0  0
    1.3012   -0.1208    0.0000 C   0  0  2  0  0  0  0  0  0  0  0  0
    0.8517   -0.9111    0.0000 C   0  0  0  0  0  0  0  0  0  0  0  0
    0.5657   -0.4945    0.0000 C   0  0  0  0  0  0  0  0  0  0  0  0
    1.3012    0.7042    0.0000 N   0  0  0  0  0  0  0  0  0  0  0  0
    2.0156    1.1167    0.0000 C   0  0  0  0  0  0  0  0  0  0  0  0
    2.7301    0.7042    0.0000 O   0  0  0  0  0  0  0  0  0  0  0  0
    2.0156    1.9417    0.0000 C   0  0  0  0  0  0  0  0  0  0  0  0
    2.7301    2.3542    0.0000 C   0  0  0  0  0  0  0  0  0  0  0  0
    2.7301    3.1792    0.0000 C   0  0  0  0  0  0  0  0  0  0  0  0
    1.3011    2.3542    0.0000 C   0  0  0  0  0  0  0  0  0  0  0  0
    1.3011    3.1792    0.0000 C   0  0  0  0  0  0  0  0  0  0  0  0
  2  1  1  1  0  0  0
  2  3  1  0  0  0  0
  4  3  1  0  0  0  0
  4  5  1  6  0  0  0
  4  6  1  0  0  0  0
  7  6  1  0  0  0  0
  7  8  1  6  0  0  0
  7  9  1  0  0  0  0
  2  9  1  0  0  0  0
 11 13  1  0  0  0  0
 11 10  1  0  0  0  0
 11 12  1  0  0  0  0
  2 12  1  0  0  0  0
  7 10  1  0  0  0  0
  4 13  1  0  0  0  0
 11 14  1  1  0  0  0
 14 15  1  0  0  0  0
 15 16  2  0  0  0  0
 15 17  1  0  0  0  0
 17 18  1  0  0  0  0
 18 19  1  0  0  0  0
 17 20  1  0  0  0  0
 20 21  1  0  0  0  0
M  END
> <ID>
CPD_4737

$$$$
CPD_4742
  Mrv1822 09091914012D          

 22 23  0  0  0  0            999 V2000
    4.3848   -3.5692    0.0000 C   0  0  0  0  0  0  0  0  0  0  0  0
    3.6704   -3.1567    0.0000 N   0  0  0  0  0  0  0  0  0  0  0  0
    2.9559   -3.5692    0.0000 C   0  0  0  0  0  0  0  0  0  0  0  0
    2.2414   -3.1567    0.0000 C   0  0  0  0  0  0  0  0  0  0  0  0
    2.2414   -2.3317    0.0000 C   0  0  0  0  0  0  0  0  0  0  0  0
    2.9559   -1.9192    0.0000 C   0  0  0  0  0  0  0  0  0  0  0  0
    2.4256   -1.2873    0.0000 C   0  0  0  0  0  0  0  0  0  0  0  0
    3.6704   -2.3317    0.0000 C   0  0  0  0  0  0  0  0  0  0  0  0
    3.4862   -1.2873    0.0000 N   0  0  0  0  0  0  0  0  0  0  0  0
    4.2986   -1.4305    0.0000 C   0  0  0  0  0  0  0  0  0  0  0  0
    4.5808   -2.2058    0.0000 O   0  0  0  0  0  0  0  0  0  0  0  0
    4.8289   -0.7985    0.0000 C   0  0  0  0  0  0  0  0  0  0  0  0
    5.6414   -0.9418    0.0000 C   0  0  0  0  0  0  0  0  0  0  0  0
    6.1717   -0.3098    0.0000 C   0  0  0  0  0  0  0  0  0  0  0  0
    5.8895    0.4654    0.0000 F   0  0  0  0  0  0  0  0  0  0  0  0
    6.9842   -0.4531    0.0000 C   0  0  0  0  0  0  0  0  0  0  0  0
    7.5145    0.1789    0.0000 C   0  0  0  0  0  0  0  0  0  0  0  0
    7.2663   -1.2283    0.0000 C   0  0  0  0  0  0  0  0  0  0  0  0
    8.0788   -1.3716    0.0000 F   0  0  0  0  0  0  0  0  0  0  0  0
    6.7360   -1.8603    0.0000 C   0  0  0  0  0  0  0  0  0  0  0  0
    5.9236   -1.7170    0.0000 C   0  0  0  0  0  0  0  0  0  0  0  0
    5.3933   -2.3490    0.0000 Cl  0  0  0  0  0  0  0  0  0  0  0  0
  1  2  1  0  0  0  0
  2  3  1  0  0  0  0
  3  4  1  0  0  0  0
  4  5  1  0  0  0  0
  5  6  1  0  0  0  0
  6  7  1  0  0  0  0
  6  8  1  0  0  0  0
  2  8  1  0  0  0  0
  6  9  1  0  0  0  0
  9 10  1  0  0  0  0
 10 11  2  0  0  0  0
 10 12  1  0  0  0  0
 12 13  1  0  0  0  0
 13 14  2  0  0  0  0
 14 15  1  0  0  0  0
 14 16  1  0  0  0  0
 16 17  1  0  0  0  0
 16 18  2  0  0  0  0
 18 19  1  0  0  0  0
 18 20  1  0  0  0  0
 20 21  2  0  0  0  0
 13 21  1  0  0  0  0
 21 22  1  0  0  0  0
M  END
> <ID>
CPD_4742

$$$$
CPD_4747
  Mrv1822 09091914012D          

 22 25  0  0  0  0            999 V2000
    2.1552   -4.8122    0.0000 C   0  0  0  0  0  0  0  0  0  0  0  0
    1.3428   -4.9555    0.0000 N   0  0  0  0  0  0  0  0  0  0  0  0
    1.0606   -5.7307    0.0000 C   0  0  0  0  0  0  0  0  0  0  0  0
    0.2481   -5.8740    0.0000 C   0  0  0  0  0  0  0  0  0  0  0  0
   -0.2822   -5.2420    0.0000 C   0  0  0  0  0  0  0  0  0  0  0  0
    0.0000   -4.4667    0.0000 C   0  0  0  0  0  0  0  0  0  0  0  0
   -0.8125   -4.3235    0.0000 C   0  0  0  0  0  0  0  0  0  0  0  0
    0.8125   -4.3235    0.0000 C   0  0  0  0  0  0  0  0  0  0  0  0
    0.0000   -3.6417    0.0000 N   0  0  0  0  0  0  0  0  0  0  0  0
    0.7145   -3.2292    0.0000 C   0  0  0  0  0  0  0  0  0  0  0  0
    1.4289   -3.6417    0.0000 O   0  0  0  0  0  0  0  0  0  0  0  0
    0.7145   -2.4042    0.0000 C   0  0  0  0  0  0  0  0  0  0  0  0
    0.1311   -1.8209    0.0000 C   0  0  0  0  0  0  0  0  0  0  0  0
    0.7145   -1.2375    0.0000 C   0  0  0  0  0  0  0  0  0  0  0  0
    1.2978   -1.8209    0.0000 C   0  0  0  0  0  0  0  0  0  0  0  0
    0.8603   -1.8209    0.0000 C   0  0  0  0  0  0  0  0  0  0  0  0
    0.7145   -0.4125    0.0000 C   0  0  0  0  0  0  0  0  0  0  0  0
    0.0000    0.0000    0.0000 C   0  0  0  0  0  0  0  0  0  0  0  0
    0.0000    0.8250    0.0000 C   0  0  0  0  0  0  0  0  0  0  0  0
    0.7145    1.2375    0.0000 C   0  0  0  0  0  0  0  0  0  0  0  0
    1.4289    0.8250    0.0000 C   0  0  0  0  0  0  0  0  0  0  0  0
    1.4289   -0.0000    0.0000 C   0  0  0  0  0  0  0  0  0  0  0  0
  1  2  1  0  0  0  0
  2  3  1  0  0  0  0
  3  4  1  0  0  0  0
  4  5  1  0  0  0  0
  5  6  1  0  0  0  0
  6  7  1  0  0  0  0
  6  8  1  0  0  0  0
  2  8  1  0  0  0  0
  6  9  1  0  0  0  0
  9 10  1  0  0  0  0
 10 11  2  0  0  0  0
 10 12  1  0  0  0  0
 12 13  1  0  0  0  0
 13 14  1  0  0  0  0
 14 15  1  0  0  0  0
 12 15  1  0  0  0  0
 14 16  1  0  0  0  0
 12 16  1  0  0  0  0
 14 17  1  0  0  0  0
 17 18  2  0  0  0  0
 18 19  1  0  0  0  0
 19 20  2  0  0  0  0
 20 21  1  0  0  0  0
 21 22  2  0  0  0  0
 17 22  1  0  0  0  0
M  END
> <ID>
CPD_4747

$$$$
CPD_4752
  Mrv1822 09091914012D          

 20 21  0  0  0  0            999 V2000
    4.3848   -3.5692    0.0000 C   0  0  0  0  0  0  0  0  0  0  0  0
    3.6704   -3.1567    0.0000 N   0  0  0  0  0  0  0  0  0  0  0  0
    2.9559   -3.5692    0.0000 C   0  0  0  0  0  0  0  0  0  0  0  0
    2.2414   -3.1567    0.0000 C   0  0  0  0  0  0  0  0  0  0  0  0
    2.2414   -2.3317    0.0000 C   0  0  0  0  0  0  0  0  0  0  0  0
    2.9559   -1.9192    0.0000 C   0  0  0  0  0  0  0  0  0  0  0  0
    2.4256   -1.2873    0.0000 C   0  0  0  0  0  0  0  0  0  0  0  0
    3.6704   -2.3317    0.0000 C   0  0  0  0  0  0  0  0  0  0  0  0
    3.4862   -1.2873    0.0000 N   0  0  0  0  0  0  0  0  0  0  0  0
    4.2986   -1.4305    0.0000 C   0  0  0  0  0  0  0  0  0  0  0  0
    4.5808   -2.2058    0.0000 O   0  0  0  0  0  0  0  0  0  0  0  0
    4.8289   -0.7985    0.0000 C   0  0  0  0  0  0  0  0  0  0  0  0
    5.6414   -0.9418    0.0000 C   0  0  0  0  0  0  0  0  0  0  0  0
    6.1717   -0.3098    0.0000 C   0  0  0  0  0  0  0  0  0  0  0  0
    5.8895    0.4654    0.0000 F   0  0  0  0  0  0  0  0  0  0  0  0
    6.9842   -0.4531    0.0000 C   0  0  0  0  0  0  0  0  0  0  0  0
    7.2663   -1.2283    0.0000 C   0  0  0  0  0  0  0  0  0  0  0  0
    6.7360   -1.8603    0.0000 C   0  0  0  0  0  0  0  0  0  0  0  0
    7.0182   -2.6355    0.0000 F   0  0  0  0  0  0  0  0  0  0  0  0
    5.9236   -1.7170    0.0000 C   0  0  0  0  0  0  0  0  0  0  0  0
  1  2  1  0  0  0  0
  2  3  1  0  0  0  0
  3  4  1  0  0  0  0
  4  5  1  0  0  0  0
  5  6  1  0  0  0  0
  6  7  1  0  0  0  0
  6  8  1  0  0  0  0
  2  8  1  0  0  0  0
  6  9  1  0  0  0  0
  9 10  1  0  0  0  0
 10 11  2  0  0  0  0
 10 12  1  0  0  0  0
 12 13  1  0  0  0  0
 13 14  2  0  0  0  0
 14 15  1  0  0  0  0
 14 16  1  0  0  0  0
 16 17  2  0  0  0  0
 17 18  1  0  0  0  0
 18 19  1  0  0  0  0
 18 20  2  0  0  0  0
 13 20  1  0  0  0  0
M  END
> <ID>
CPD_4752

$$$$
CPD_4757
  Mrv1822 09091914012D          

 25 26  0  0  0  0            999 V2000
    0.6078    6.8277    0.0000 C   0  0  0  0  0  0  0  0  0  0  0  0
    1.3222    7.2402    0.0000 O   0  0  0  0  0  0  0  0  0  0  0  0
    2.0367    6.8277    0.0000 C   0  0  0  0  0  0  0  0  0  0  0  0
    2.7512    7.2402    0.0000 C   0  0  0  0  0  0  0  0  0  0  0  0
    3.4656    6.8277    0.0000 C   0  0  0  0  0  0  0  0  0  0  0  0
    3.4656    6.0027    0.0000 C   0  0  0  0  0  0  0  0  0  0  0  0
    4.1801    5.5902    0.0000 O   0  0  0  0  0  0  0  0  0  0  0  0
    4.8946    6.0027    0.0000 C   0  0  0  0  0  0  0  0  0  0  0  0
    2.7512    5.5902    0.0000 C   0  0  0  0  0  0  0  0  0  0  0  0
    2.0367    6.0027    0.0000 C   0  0  0  0  0  0  0  0  0  0  0  0
    2.7512    4.7652    0.0000 N   0  0  0  0  0  0  0  0  0  0  0  0
    3.4656    4.3527    0.0000 C   0  0  0  0  0  0  0  0  0  0  0  0
    4.1801    4.7652    0.0000 C   0  0  0  0  0  0  0  0  0  0  0  0
    3.4656    3.5277    0.0000 C   0  0  0  0  0  0  0  0  0  0  0  0
    4.1331    3.0428    0.0000 N   0  0  0  0  0  0  0  0  0  0  0  0
    3.8781    2.2581    0.0000 C   0  0  0  0  0  0  0  0  0  0  0  0
    3.0531    2.2581    0.0000 N   0  0  0  0  0  0  0  0  0  0  0  0
    2.7982    3.0428    0.0000 O   0  0  0  0  0  0  0  0  0  0  0  0
    4.3631    1.5907    0.0000 C   0  0  0  0  0  0  0  0  0  0  0  0
    5.1836    1.6769    0.0000 N   0  0  0  0  0  0  0  0  0  0  0  0
    4.0275    0.8370    0.0000 O   0  0  0  0  0  0  0  0  0  0  0  0
    2.0367    4.3527    0.0000 S   0  0  0  0  0  0  0  0  0  0  0  0
    1.6242    5.0672    0.0000 C   0  0  0  0  0  0  0  0  0  0  0  0
    1.3222    3.9402    0.0000 O   0  0  0  0  0  0  0  0  0  0  0  0
    2.4492    3.6382    0.0000 O   0  0  0  0  0  0  0  0  0  0  0  0
  1  2  1  0  0  0  0
  2  3  1  0  0  0  0
  3  4  4  0  0  0  0
  4  5  4  0  0  0  0
  5  6  4  0  0  0  0
  6  7  1  0  0  0  0
  7  8  1  0  0  0  0
  6  9  4  0  0  0  0
  9 10  4  0  0  0  0
  3 10  4  0  0  0  0
  9 11  1  0  0  0  0
 11 12  1  0  0  0  0
 12 13  1  0  0  0  0
 12 14  1  0  0  0  0
 14 15  4  0  0  0  0
 15 16  4  0  0  0  0
 16 17  4  0  0  0  0
 17 18  4  0  0  0  0
 14 18  4  0  0  0  0
 16 19  1  0  0  0  0
 19 20  1  0  0  0  0
 19 21  2  0  0  0  0
 11 22  1  0  0  0  0
 22 23  1  0  0  0  0
 22 24  2  0  0  0  0
 22 25  2  0  0  0  0
M  END
> <ID>
CPD_4757

$$$$
CPD_4762
  Mrv1822 09091914012D          

 23 25  0  0  0  0            999 V2000
   -0.0000    9.6536    0.0000 C   0  0  0  0  0  0  0  0  0  0  0  0
    0.7145    9.2411    0.0000 O   0  0  0  0  0  0  0  0  0  0  0  0
    0.7145    8.4161    0.0000 C   0  0  0  0  0  0  0  0  0  0  0  0
    1.4289    8.0036    0.0000 C   0  0  0  0  0  0  0  0  0  0  0  0
    1.4289    7.1786    0.0000 C   0  0  0  0  0  0  0  0  0  0  0  0
    0.7145    6.7661    0.0000 C   0  0  0  0  0  0  0  0  0  0  0  0
   -0.0000    7.1786    0.0000 C   0  0  0  0  0  0  0  0  0  0  0  0
   -0.0000    8.0036    0.0000 C   0  0  0  0  0  0  0  0  0  0  0  0
    0.7145    5.9411    0.0000 C   0  0  0  0  0  0  0  0  0  0  0  0
    1.4289    5.5286    0.0000 C   0  0  0  0  0  0  0  0  0  0  0  0
    1.4289    4.7036    0.0000 C   0  0  0  0  0  0  0  0  0  0  0  0
    0.7145    4.2911    0.0000 C   0  0  0  0  0  0  0  0  0  0  0  0
    0.7145    3.4661    0.0000 C   0  0  0  0  0  0  0  0  0  0  0  0
    1.3819    2.9812    0.0000 N   0  0  0  0  0  0  0  0  0  0  0  0
    1.1270    2.1965    0.0000 C   0  0  0  0  0  0  0  0  0  0  0  0
    0.3020    2.1965    0.0000 N   0  0  0  0  0  0  0  0  0  0  0  0
    0.0470    2.9812    0.0000 O   0  0  0  0  0  0  0  0  0  0  0  0
    1.6119    1.5291    0.0000 C   0  0  0  0  0  0  0  0  0  0  0  0
    2.4324    1.6153    0.0000 N   0  0  0  0  0  0  0  0  0  0  0  0
    1.2763    0.7754    0.0000 O   0  0  0  0  0  0  0  0  0  0  0  0
    0.0000    4.7036    0.0000 C   0  0  0  0  0  0  0  0  0  0  0  0
   -0.7145    4.2911    0.0000 O   0  0  0  0  0  0  0  0  0  0  0  0
   -0.0000    5.5286    0.0000 N   0  0  0  0  0  0  0  0  0  0  0  0
  1  2  1  0  0  0  0
  2  3  1  0  0  0  0
  3  4  4  0  0  0  0
  4  5  4  0  0  0  0
  5  6  4  0  0  0  0
  6  7  4  0  0  0  0
  7  8  4  0  0  0  0
  3  8  4  0  0  0  0
  6  9  1  0  0  0  0
  9 10  4  0  0  0  0
 10 11  4  0  0  0  0
 11 12  4  0  0  0  0
 12 13  1  0  0  0  0
 13 14  4  0  0  0  0
 14 15  4  0  0  0  0
 15 16  4  0  0  0  0
 16 17  4  0  0  0  0
 13 17  4  0  0  0  0
 15 18  1  0  0  0  0
 18 19  1  0  0  0  0
 18 20  2  0  0  0  0
 12 21  4  0  0  0  0
 21 22  2  0  0  0  0
 21 23  4  0  0  0  0
  9 23  4  0  0  0  0
M  STY  1   1 DAT
M  SAL   1  1  23
M  SDT   1 MRV_IMPLICIT_H                                        
M  SDD   1     0.5304   -0.4125    DR    ALL  0       0  
M  SED   1 IMPL_H1
M  END
> <ID>
CPD_4762

$$$$
CPD_4767
  Mrv1822 09091914012D          

 33 37  0  0  1  0            999 V2000
    6.0231   -1.4167    0.0000 C   0  0  0  0  0  0  0  0  0  0  0  0
    5.3574   -0.9295    0.0000 C   0  0  0  0  0  0  0  0  0  0  0  0
    5.8446   -0.2637    0.0000 C   0  0  0  0  0  0  0  0  0  0  0  0
    4.8701   -1.5952    0.0000 C   0  0  0  0  0  0  0  0  0  0  0  0
    4.6916   -0.4422    0.0000 O   0  0  0  0  0  0  0  0  0  0  0  0
    3.9368   -0.7752    0.0000 C   0  0  0  0  0  0  0  0  0  0  0  0
    3.8477   -1.5953    0.0000 O   0  0  0  0  0  0  0  0  0  0  0  0
    3.2710   -0.2879    0.0000 N   0  0  0  0  0  0  0  0  0  0  0  0
    2.4855   -0.5401    0.0000 C   0  0  1  0  0  0  0  0  0  0  0  0
    2.2279   -1.3238    0.0000 C   0  0  0  0  0  0  0  0  0  0  0  0
    2.7778   -1.9388    0.0000 C   0  0  0  0  0  0  0  0  0  0  0  0
    3.5853   -1.7701    0.0000 C   0  0  0  0  0  0  0  0  0  0  0  0
    4.1352   -2.3852    0.0000 C   0  0  0  0  0  0  0  0  0  0  0  0
    3.8775   -3.1689    0.0000 C   0  0  0  0  0  0  0  0  0  0  0  0
    3.0700   -3.3376    0.0000 C   0  0  0  0  0  0  0  0  0  0  0  0
    2.5201   -2.7226    0.0000 C   0  0  0  0  0  0  0  0  0  0  0  0
    1.7125   -2.8913    0.0000 F   0  0  0  0  0  0  0  0  0  0  0  0
    2.0029    0.1290    0.0000 C   0  0  0  0  0  0  0  0  0  0  0  0
    2.4902    0.7948    0.0000 C   0  0  0  0  0  0  0  0  0  0  0  0
    3.2739    0.5371    0.0000 C   0  0  0  0  0  0  0  0  0  0  0  0
    3.9431    1.0197    0.0000 O   0  0  0  0  0  0  0  0  0  0  0  0
    1.5202   -0.6298    0.0000 N   0  0  0  0  0  0  0  0  0  0  0  0
    0.5904   -0.6605    0.0000 C   0  0  0  0  0  0  0  0  0  0  0  0
   -0.1560   -0.0846    0.0000 C   0  0  0  0  0  0  0  0  0  0  0  0
   -0.9331   -0.3617    0.0000 C   0  0  0  0  0  0  0  0  0  0  0  0
   -1.7101   -0.6388    0.0000 N   0  0  0  0  0  0  0  0  0  0  0  0
    0.0524    0.8108    0.0000 C   0  0  0  0  0  0  0  0  0  0  0  0
    0.0810    1.6941    0.0000 C   0  0  0  0  0  0  0  0  0  0  0  0
    0.7880    2.1716    0.0000 C   0  0  0  0  0  0  0  0  0  0  0  0
    1.5242    1.7579    0.0000 C   0  0  0  0  0  0  0  0  0  0  0  0
    1.5798    0.8910    0.0000 C   0  0  0  0  0  0  0  0  0  0  0  0
    0.8162    0.6715    0.0000 C   0  0  0  0  0  0  0  0  0  0  0  0
    0.7370   -0.1044    0.0000 C   0  0  0  0  0  0  0  0  0  0  0  0
  1  2  1  0  0  0  0
  2  3  1  0  0  0  0
  2  4  1  0  0  0  0
  2  5  1  0  0  0  0
  5  6  1  0  0  0  0
  6  7  2  0  0  0  0
  6  8  1  0  0  0  0
  9  8  1  0  0  0  0
  9 10  1  1  0  0  0
 10 11  1  0  0  0  0
 11 12  2  0  0  0  0
 12 13  1  0  0  0  0
 13 14  2  0  0  0  0
 14 15  1  0  0  0  0
 15 16  2  0  0  0  0
 11 16  1  0  0  0  0
 16 17  1  0  0  0  0
  9 18  1  0  0  0  0
 18 19  1  0  0  0  0
 19 20  1  0  0  0  0
  8 20  1  0  0  0  0
 20 21  2  0  0  0  0
 18 22  1  0  0  0  0
 22 23  1  0  0  0  0
 23 24  2  0  0  0  0
 24 25  1  0  0  0  0
 25 26  3  0  0  0  0
 24 27  1  0  0  0  0
 27 28  2  0  0  0  0
 28 29  1  0  0  0  0
 29 30  2  0  0  0  0
 30 31  1  0  0  0  0
 18 31  1  0  0  0  0
 31 32  2  0  0  0  0
 27 32  1  0  0  0  0
 32 33  1  0  0  0  0
 23 33  1  0  0  0  0
M  END
> <ID>
CPD_4767

$$$$
CPD_4772
  Mrv1822 09091914012D          

 22 25  0  0  0  0            999 V2000
    0.3372   -1.1545    0.0000 C   0  0  0  0  0  0  0  0  0  0  0  0
    1.0466   -0.7334    0.0000 C   0  0  0  0  0  0  0  0  0  0  0  0
    1.3449   -1.5026    0.0000 C   0  0  0  0  0  0  0  0  0  0  0  0
    0.8280   -2.1455    0.0000 N   0  0  0  0  0  0  0  0  0  0  0  0
    1.0442   -2.9417    0.0000 C   0  0  0  0  0  0  0  0  0  0  0  0
    1.8155   -3.2346    0.0000 Cl  0  0  0  0  0  0  0  0  0  0  0  0
    0.3539   -3.3934    0.0000 N   0  0  0  0  0  0  0  0  0  0  0  0
   -0.2890   -2.8764    0.0000 N   0  0  0  0  0  0  0  0  0  0  0  0
    0.0039   -2.1052    0.0000 C   0  0  0  0  0  0  0  0  0  0  0  0
   -0.4478   -1.4149    0.0000 Cl  0  0  0  0  0  0  0  0  0  0  0  0
    0.4662   -0.0464    0.0000 N   0  0  0  0  0  0  0  0  0  0  0  0
    0.7141    0.8503    0.0000 C   0  0  0  0  0  0  0  0  0  0  0  0
    1.4863    1.3911    0.0000 C   0  0  0  0  0  0  0  0  0  0  0  0
    1.4535    2.2154    0.0000 C   0  0  0  0  0  0  0  0  0  0  0  0
    1.4206    3.0398    0.0000 N   0  0  0  0  0  0  0  0  0  0  0  0
    2.2789    0.9252    0.0000 C   0  0  0  0  0  0  0  0  0  0  0  0
    3.1135    0.6346    0.0000 C   0  0  0  0  0  0  0  0  0  0  0  0
    3.3585   -0.1827    0.0000 C   0  0  0  0  0  0  0  0  0  0  0  0
    2.7441   -0.7621    0.0000 C   0  0  0  0  0  0  0  0  0  0  0  0
    1.9001   -0.5566    0.0000 C   0  0  0  0  0  0  0  0  0  0  0  0
    1.9182    0.2376    0.0000 C   0  0  0  0  0  0  0  0  0  0  0  0
    1.2012    0.5445    0.0000 C   0  0  0  0  0  0  0  0  0  0  0  0
  1  2  1  0  0  0  0
  2  3  1  0  0  0  0
  3  4  1  0  0  0  0
  4  5  1  0  0  0  0
  5  6  1  0  0  0  0
  5  7  2  0  0  0  0
  7  8  1  0  0  0  0
  8  9  2  0  0  0  0
  4  9  1  0  0  0  0
  9 10  1  0  0  0  0
  2 11  1  0  0  0  0
 11 12  1  0  0  0  0
 12 13  2  0  0  0  0
 13 14  1  0  0  0  0
 14 15  3  0  0  0  0
 13 16  1  0  0  0  0
 16 17  2  0  0  0  0
 17 18  1  0  0  0  0
 18 19  2  0  0  0  0
 19 20  1  0  0  0  0
  2 20  1  0  0  0  0
 20 21  2  0  0  0  0
 16 21  1  0  0  0  0
 21 22  1  0  0  0  0
 12 22  1  0  0  0  0
M  END
> <ID>
CPD_4772

$$$$
CPD_4777
  Mrv1822 09091914012D          

 22 24  0  0  0  0            999 V2000
   -3.2704   -3.8868    0.0000 C   0  0  0  0  0  0  0  0  0  0  0  0
   -3.2704   -3.0618    0.0000 C   0  0  0  0  0  0  0  0  0  0  0  0
   -3.9849   -2.6493    0.0000 N   0  0  0  0  0  0  0  0  0  0  0  0
   -3.9849   -1.8243    0.0000 C   0  0  0  0  0  0  0  0  0  0  0  0
   -4.6993   -1.4118    0.0000 O   0  0  0  0  0  0  0  0  0  0  0  0
   -3.2704   -1.4118    0.0000 C   0  0  0  0  0  0  0  0  0  0  0  0
   -3.2704   -0.5868    0.0000 C   0  0  0  0  0  0  0  0  0  0  0  0
   -3.9849   -0.1743    0.0000 C   0  0  0  0  0  0  0  0  0  0  0  0
   -4.6993   -0.5868    0.0000 C   0  0  0  0  0  0  0  0  0  0  0  0
   -5.4138   -0.1743    0.0000 C   0  0  0  0  0  0  0  0  0  0  0  0
   -6.1283   -0.5868    0.0000 Br  0  0  0  0  0  0  0  0  0  0  0  0
   -5.4138    0.6507    0.0000 C   0  0  0  0  0  0  0  0  0  0  0  0
   -6.1283    1.0632    0.0000 O   0  0  0  0  0  0  0  0  0  0  0  0
   -4.6993    1.0632    0.0000 C   0  0  0  0  0  0  0  0  0  0  0  0
   -4.6993    1.8882    0.0000 Br  0  0  0  0  0  0  0  0  0  0  0  0
   -3.9849    0.6507    0.0000 C   0  0  0  0  0  0  0  0  0  0  0  0
   -2.5559   -1.8243    0.0000 N   0  0  0  0  0  0  0  0  0  0  0  0
   -2.5559   -2.6493    0.0000 C   0  0  0  0  0  0  0  0  0  0  0  0
   -1.8414   -3.0618    0.0000 N   0  0  0  0  0  0  0  0  0  0  0  0
   -1.8414   -3.8868    0.0000 C   0  0  0  0  0  0  0  0  0  0  0  0
   -1.4289   -4.6013    0.0000 C   0  0  0  0  0  0  0  0  0  0  0  0
   -2.2539   -4.6013    0.0000 C   0  0  0  0  0  0  0  0  0  0  0  0
  1  2  1  0  0  0  0
  2  3  4  0  0  0  0
  3  4  4  0  0  0  0
  4  5  1  0  0  0  0
  4  6  4  0  0  0  0
  6  7  1  0  0  0  0
  7  8  1  0  0  0  0
  8  9  4  0  0  0  0
  9 10  4  0  0  0  0
 10 11  1  0  0  0  0
 10 12  4  0  0  0  0
 12 13  1  0  0  0  0
 12 14  4  0  0  0  0
 14 15  1  0  0  0  0
 14 16  4  0  0  0  0
  8 16  4  0  0  0  0
  6 17  4  0  0  0  0
 17 18  4  0  0  0  0
  2 18  4  0  0  0  0
 18 19  1  0  0  0  0
 19 20  1  0  0  0  0
 20 21  1  0  0  0  0
 21 22  1  0  0  0  0
 20 22  1  0  0  0  0
M  END
> <ID>
CPD_4777

$$$$
CPD_4782
  Mrv1822 09091914012D          

 21 22  0  0  0  0            999 V2000
   -0.7145   -6.1875    0.0000 C   0  0  0  0  0  0  0  0  0  0  0  0
   -0.7145   -5.3625    0.0000 N   0  0  0  0  0  0  0  0  0  0  0  0
    0.0000   -4.9500    0.0000 C   0  0  0  0  0  0  0  0  0  0  0  0
    0.0000   -4.1250    0.0000 N   0  0  0  0  0  0  0  0  0  0  0  0
    0.7145   -3.7125    0.0000 C   0  0  0  0  0  0  0  0  0  0  0  0
    1.4289   -4.1250    0.0000 C   0  0  0  0  0  0  0  0  0  0  0  0
    2.1434   -3.7125    0.0000 C   0  0  0  0  0  0  0  0  0  0  0  0
    2.8579   -4.1250    0.0000 C   0  0  0  0  0  0  0  0  0  0  0  0
    3.5724   -3.7125    0.0000 C   0  0  0  0  0  0  0  0  0  0  0  0
    3.5724   -2.8875    0.0000 O   0  0  0  0  0  0  0  0  0  0  0  0
    4.2868   -4.1250    0.0000 O   0  0  0  0  0  0  0  0  0  0  0  0
    5.0013   -3.7125    0.0000 C   0  0  0  0  0  0  0  0  0  0  0  0
    5.7158   -4.1250    0.0000 C   0  0  0  0  0  0  0  0  0  0  0  0
    6.4302   -3.7125    0.0000 C   0  0  0  0  0  0  0  0  0  0  0  0
    7.1447   -4.1250    0.0000 C   0  0  0  0  0  0  0  0  0  0  0  0
    7.1447   -4.9500    0.0000 C   0  0  0  0  0  0  0  0  0  0  0  0
    6.4302   -5.3625    0.0000 C   0  0  0  0  0  0  0  0  0  0  0  0
    5.7158   -4.9500    0.0000 C   0  0  0  0  0  0  0  0  0  0  0  0
    1.4289   -4.9500    0.0000 N   0  0  0  0  0  0  0  0  0  0  0  0
    0.7145   -5.3625    0.0000 C   0  0  0  0  0  0  0  0  0  0  0  0
    0.7145   -6.1875    0.0000 C   0  0  0  0  0  0  0  0  0  0  0  0
  1  2  1  0  0  0  0
  2  3  1  0  0  0  0
  3  4  4  0  0  0  0
  4  5  4  0  0  0  0
  5  6  4  0  0  0  0
  6  7  1  0  0  0  0
  7  8  1  0  0  0  0
  8  9  1  0  0  0  0
  9 10  2  0  0  0  0
  9 11  1  0  0  0  0
 11 12  1  0  0  0  0
 12 13  1  0  0  0  0
 13 14  4  0  0  0  0
 14 15  4  0  0  0  0
 15 16  4  0  0  0  0
 16 17  4  0  0  0  0
 17 18  4  0  0  0  0
 13 18  4  0  0  0  0
  6 19  4  0  0  0  0
 19 20  4  0  0  0  0
  3 20  4  0  0  0  0
 20 21  1  0  0  0  0
M  END
> <ID>
CPD_4782

$$$$
CPD_4787
  Mrv1822 09091914012D          

 37 40  0  0  0  0            999 V2000
    2.0367   -0.4741    0.0000 C   0  0  0  0  0  0  0  0  0  0  0  0
    2.0367   -1.2991    0.0000 C   0  0  0  0  0  0  0  0  0  0  0  0
    2.7512   -1.7116    0.0000 O   0  0  0  0  0  0  0  0  0  0  0  0
    2.7512   -2.5366    0.0000 C   0  0  0  0  0  0  0  0  0  0  0  0
    3.4186   -3.0215    0.0000 N   0  0  0  0  0  0  0  0  0  0  0  0
    3.1637   -3.8062    0.0000 N   0  0  0  0  0  0  0  0  0  0  0  0
    2.3387   -3.8062    0.0000 C   0  0  0  0  0  0  0  0  0  0  0  0
    1.8538   -4.4736    0.0000 O   0  0  0  0  0  0  0  0  0  0  0  0
    2.1893   -5.2273    0.0000 C   0  0  0  0  0  0  0  0  0  0  0  0
    1.7044   -5.8947    0.0000 C   0  0  0  0  0  0  0  0  0  0  0  0
    2.0837   -3.0215    0.0000 C   0  0  0  0  0  0  0  0  0  0  0  0
    1.2991   -2.7666    0.0000 C   0  0  0  0  0  0  0  0  0  0  0  0
    0.6860   -3.3186    0.0000 C   0  0  0  0  0  0  0  0  0  0  0  0
   -0.0986   -3.0637    0.0000 C   0  0  0  0  0  0  0  0  0  0  0  0
   -0.2701   -2.2567    0.0000 C   0  0  0  0  0  0  0  0  0  0  0  0
   -1.0547   -2.0018    0.0000 O   0  0  0  0  0  0  0  0  0  0  0  0
   -1.2263   -1.1948    0.0000 C   0  0  0  0  0  0  0  0  0  0  0  0
    0.3430   -1.7047    0.0000 N   0  0  0  0  0  0  0  0  0  0  0  0
    1.1276   -1.9596    0.0000 C   0  0  0  0  0  0  0  0  0  0  0  0
    3.6486   -4.4736    0.0000 C   0  0  0  0  0  0  0  0  0  0  0  0
    4.4691   -4.3874    0.0000 N   0  0  0  0  0  0  0  0  0  0  0  0
    4.9540   -5.0548    0.0000 C   0  0  0  0  0  0  0  0  0  0  0  0
    4.6184   -5.8085    0.0000 C   0  0  0  0  0  0  0  0  0  0  0  0
    3.7980   -5.8947    0.0000 C   0  0  0  0  0  0  0  0  0  0  0  0
    3.3130   -5.2273    0.0000 N   0  0  0  0  0  0  0  0  0  0  0  0
    3.4624   -6.6484    0.0000 C   0  0  0  0  0  0  0  0  0  0  0  0
    3.9473   -7.3158    0.0000 C   0  0  0  0  0  0  0  0  0  0  0  0
    4.7678   -7.2296    0.0000 O   0  0  0  0  0  0  0  0  0  0  0  0
    5.1034   -6.4759    0.0000 C   0  0  0  0  0  0  0  0  0  0  0  0
    3.6118   -8.0695    0.0000 C   0  0  0  0  0  0  0  0  0  0  0  0
    2.7913   -8.1557    0.0000 C   0  0  0  0  0  0  0  0  0  0  0  0
    2.3064   -7.4883    0.0000 C   0  0  0  0  0  0  0  0  0  0  0  0
    2.6419   -6.7346    0.0000 C   0  0  0  0  0  0  0  0  0  0  0  0
    5.7745   -4.9686    0.0000 C   0  0  0  0  0  0  0  0  0  0  0  0
    6.5950   -4.8823    0.0000 F   0  0  0  0  0  0  0  0  0  0  0  0
    5.8607   -5.7890    0.0000 F   0  0  0  0  0  0  0  0  0  0  0  0
    5.6882   -4.1481    0.0000 F   0  0  0  0  0  0  0  0  0  0  0  0
  1  2  1  0  0  0  0
  2  3  1  0  0  0  0
  3  4  1  0  0  0  0
  4  5  2  0  0  0  0
  5  6  1  0  0  0  0
  6  7  1  0  0  0  0
  7  8  1  0  0  0  0
  8  9  1  0  0  0  0
  9 10  1  0  0  0  0
  7 11  2  0  0  0  0
  4 11  1  0  0  0  0
 11 12  1  0  0  0  0
 12 13  2  0  0  0  0
 13 14  1  0  0  0  0
 14 15  2  0  0  0  0
 15 16  1  0  0  0  0
 16 17  1  0  0  0  0
 15 18  1  0  0  0  0
 18 19  2  0  0  0  0
 12 19  1  0  0  0  0
  6 20  1  0  0  0  0
 20 21  2  0  0  0  0
 21 22  1  0  0  0  0
 22 23  2  0  0  0  0
 23 24  1  0  0  0  0
 24 25  2  0  0  0  0
 20 25  1  0  0  0  0
 24 26  1  0  0  0  0
 26 27  2  0  0  0  0
 27 28  1  0  0  0  0
 28 29  1  0  0  0  0
 27 30  1  0  0  0  0
 30 31  2  0  0  0  0
 31 32  1  0  0  0  0
 32 33  2  0  0  0  0
 26 33  1  0  0  0  0
 22 34  1  0  0  0  0
 34 35  1  0  0  0  0
 34 36  1  0  0  0  0
 34 37  1  0  0  0  0
M  END
> <ID>
CPD_4787

$$$$
CPD_4792
  Mrv1822 09091914012D          

 30 33  0  0  1  0            999 V2000
   -1.4392   -2.6997    0.0000 H   0  0  0  0  0  0  0  0  0  0  0  0
   -0.6264   -2.8410    0.0000 O   0  0  0  0  0  0  0  0  0  0  0  0
   -0.0976   -2.2077    0.0000 C   0  0  0  0  0  0  0  0  0  0  0  0
    0.1827   -1.4318    0.0000 C   0  0  0  0  0  0  0  0  0  0  0  0
    0.9948   -1.2866    0.0000 C   0  0  0  0  0  0  0  0  0  0  0  0
    1.5266   -1.9173    0.0000 C   0  0  2  0  0  0  0  0  0  0  0  0
    1.8069   -1.1414    0.0000 C   0  0  0  0  0  0  0  0  0  0  0  0
    2.3387   -1.7721    0.0000 C   0  0  0  0  0  0  0  0  0  0  0  0
    2.6190   -0.9961    0.0000 C   0  0  0  0  0  0  0  0  0  0  0  0
    3.4311   -0.8509    0.0000 C   0  0  0  0  0  0  0  0  0  0  0  0
    3.9629   -1.4816    0.0000 C   0  0  1  0  0  0  0  0  0  0  0  0
    4.3228   -0.7393    0.0000 C   0  0  0  0  0  0  0  0  0  0  0  0
    3.6826   -2.2576    0.0000 C   0  0  0  0  0  0  0  0  0  0  0  0
    4.3340   -2.7639    0.0000 C   0  0  0  0  0  0  0  0  0  0  0  0
    5.0168   -2.3009    0.0000 C   0  0  0  0  0  0  0  0  0  0  0  0
    4.7875   -1.5084    0.0000 C   0  0  0  0  0  0  0  0  0  0  0  0
    5.5484   -1.1896    0.0000 C   0  0  0  0  0  0  0  0  0  0  0  0
    4.9089   -0.6924    0.0000 O   0  0  0  0  0  0  0  0  0  0  0  0
    2.8705   -2.4028    0.0000 C   0  0  0  0  0  0  0  0  0  0  0  0
    2.5902   -3.1787    0.0000 C   0  0  0  0  0  0  0  0  0  0  0  0
    1.7781   -3.3239    0.0000 C   0  0  0  0  0  0  0  0  0  0  0  0
    1.2463   -2.6932    0.0000 C   0  0  0  0  0  0  0  0  0  0  0  0
    0.4342   -2.8384    0.0000 C   0  0  0  0  0  0  0  0  0  0  0  0
   -0.8131   -1.7969    0.0000 C   0  0  0  0  0  0  0  0  0  0  0  0
   -1.5266   -2.2112    0.0000 C   0  0  0  0  0  0  0  0  0  0  0  0
   -0.8151   -0.9719    0.0000 C   0  0  0  0  0  0  0  0  0  0  0  0
   -0.1016   -0.5577    0.0000 O   0  0  0  0  0  0  0  0  0  0  0  0
   -1.5306   -0.5612    0.0000 O   0  0  0  0  0  0  0  0  0  0  0  0
   -1.5325    0.2638    0.0000 C   0  0  0  0  0  0  0  0  0  0  0  0
   -2.2480    0.6746    0.0000 C   0  0  0  0  0  0  0  0  0  0  0  0
  1  2  1  0  0  0  0
  2  3  1  0  0  0  0
  3  4  1  0  0  0  0
  4  5  1  0  0  0  0
  6  5  1  0  0  0  0
  6  7  1  1  0  0  0
  6  8  1  0  0  0  0
  8  9  1  0  0  0  0
  9 10  1  0  0  0  0
 11 10  1  0  0  0  0
 11 12  1  1  0  0  0
 11 13  1  0  0  0  0
 13 14  1  0  0  0  0
 14 15  1  0  0  0  0
 15 16  1  0  0  0  0
 11 16  1  0  0  0  0
 16 17  1  0  0  0  0
 16 18  1  0  0  0  0
 13 19  1  0  0  0  0
  8 19  1  0  0  0  0
 19 20  1  0  0  0  0
 20 21  1  0  0  0  0
 21 22  1  0  0  0  0
  6 22  1  0  0  0  0
 22 23  2  0  0  0  0
  3 23  1  0  0  0  0
  3 24  1  0  0  0  0
 24 25  1  0  0  0  0
 24 26  1  0  0  0  0
 26 27  2  0  0  0  0
 26 28  1  0  0  0  0
 28 29  1  0  0  0  0
 29 30  1  0  0  0  0
M  END
> <ID>
CPD_4792

$$$$
CPD_4797
  Mrv1822 09091914012D          

 30 32  0  0  0  0            999 V2000
    2.0430   -0.9030    0.0000 H   0  0  0  0  0  0  0  0  0  0  0  0
    1.2665   -0.6244    0.0000 O   0  0  0  0  0  0  0  0  0  0  0  0
    0.7145   -1.2375    0.0000 C   0  0  0  0  0  0  0  0  0  0  0  0
    0.1624   -0.6244    0.0000 C   0  0  0  0  0  0  0  0  0  0  0  0
    0.4174    0.1602    0.0000 C   0  0  0  0  0  0  0  0  0  0  0  0
    1.2243    0.3317    0.0000 O   0  0  0  0  0  0  0  0  0  0  0  0
   -0.1347    0.7733    0.0000 C   0  0  0  0  0  0  0  0  0  0  0  0
   -0.9416    0.6018    0.0000 C   0  0  0  0  0  0  0  0  0  0  0  0
   -1.1966   -0.1828    0.0000 F   0  0  0  0  0  0  0  0  0  0  0  0
   -1.4937    1.2149    0.0000 C   0  0  0  0  0  0  0  0  0  0  0  0
   -1.2387    1.9995    0.0000 C   0  0  0  0  0  0  0  0  0  0  0  0
   -0.4317    2.1710    0.0000 C   0  0  0  0  0  0  0  0  0  0  0  0
    0.1203    1.5579    0.0000 C   0  0  0  0  0  0  0  0  0  0  0  0
    0.9273    1.7295    0.0000 C   0  0  0  0  0  0  0  0  0  0  0  0
    1.7342    1.9010    0.0000 F   0  0  0  0  0  0  0  0  0  0  0  0
    1.0988    0.9225    0.0000 F   0  0  0  0  0  0  0  0  0  0  0  0
    0.7557    2.5364    0.0000 F   0  0  0  0  0  0  0  0  0  0  0  0
    1.3819   -1.7224    0.0000 O   0  0  0  0  0  0  0  0  0  0  0  0
    1.1270   -2.5070    0.0000 N   0  0  0  0  0  0  0  0  0  0  0  0
    0.3020   -2.5070    0.0000 C   0  0  0  0  0  0  0  0  0  0  0  0
    0.0470   -1.7224    0.0000 C   0  0  0  0  0  0  0  0  0  0  0  0
   -0.7376   -1.4675    0.0000 C   0  0  0  0  0  0  0  0  0  0  0  0
   -1.3507   -2.0195    0.0000 C   0  0  0  0  0  0  0  0  0  0  0  0
   -2.1353   -1.7646    0.0000 N   0  0  0  0  0  0  0  0  0  0  0  0
   -0.1830   -3.1745    0.0000 C   0  0  0  0  0  0  0  0  0  0  0  0
    0.1526   -3.9282    0.0000 C   0  0  0  0  0  0  0  0  0  0  0  0
   -0.3323   -4.5956    0.0000 C   0  0  0  0  0  0  0  0  0  0  0  0
   -1.1528   -4.5094    0.0000 C   0  0  0  0  0  0  0  0  0  0  0  0
   -1.4884   -3.7557    0.0000 N   0  0  0  0  0  0  0  0  0  0  0  0
   -1.0034   -3.0882    0.0000 C   0  0  0  0  0  0  0  0  0  0  0  0
  1  2  1  0  0  0  0
  2  3  1  0  0  0  0
  3  4  1  0  0  0  0
  4  5  1  0  0  0  0
  5  6  2  0  0  0  0
  5  7  1  0  0  0  0
  7  8  2  0  0  0  0
  8  9  1  0  0  0  0
  8 10  1  0  0  0  0
 10 11  2  0  0  0  0
 11 12  1  0  0  0  0
 12 13  2  0  0  0  0
  7 13  1  0  0  0  0
 13 14  1  0  0  0  0
 14 15  1  0  0  0  0
 14 16  1  0  0  0  0
 14 17  1  0  0  0  0
  3 18  4  0  0  0  0
 18 19  4  0  0  0  0
 19 20  4  0  0  0  0
 20 21  4  0  0  0  0
  3 21  4  0  0  0  0
 21 22  1  0  0  0  0
 22 23  1  0  0  0  0
 23 24  1  0  0  0  0
 20 25  1  0  0  0  0
 25 26  4  0  0  0  0
 26 27  4  0  0  0  0
 27 28  4  0  0  0  0
 28 29  4  0  0  0  0
 29 30  4  0  0  0  0
 25 30  4  0  0  0  0
M  STY  1   1 DAT
M  SAL   1  1  19
M  SDT   1 MRV_IMPLICIT_H                                        
M  SDD   1     0.5304   -0.4125    DR    ALL  0       0  
M  SED   1 IMPL_H1
M  END
> <ID>
CPD_4797

$$$$
CPD_4802
  Mrv1822 09091914012D          

 35 38  0  0  0  0            999 V2000
   -0.7145   -6.1875    0.0000 H   0  0  0  0  0  0  0  0  0  0  0  0
    0.0000   -5.7750    0.0000 O   0  0  0  0  0  0  0  0  0  0  0  0
    0.0000   -4.9500    0.0000 C   0  0  0  0  0  0  0  0  0  0  0  0
    0.8250   -4.9500    0.0000 N   0  0  0  0  0  0  0  0  0  0  0  0
    1.2375   -5.6645    0.0000 C   0  0  0  0  0  0  0  0  0  0  0  0
    2.0625   -5.6645    0.0000 C   0  0  0  0  0  0  0  0  0  0  0  0
    2.4750   -6.3789    0.0000 C   0  0  0  0  0  0  0  0  0  0  0  0
    2.0625   -7.0934    0.0000 C   0  0  0  0  0  0  0  0  0  0  0  0
    1.2375   -7.0934    0.0000 C   0  0  0  0  0  0  0  0  0  0  0  0
    0.8250   -6.3789    0.0000 C   0  0  0  0  0  0  0  0  0  0  0  0
   -0.8250   -4.9500    0.0000 C   0  0  0  0  0  0  0  0  0  0  0  0
   -1.2375   -4.2355    0.0000 C   0  0  0  0  0  0  0  0  0  0  0  0
   -1.6500   -3.5211    0.0000 N   0  0  0  0  0  0  0  0  0  0  0  0
   -1.2375   -5.6645    0.0000 C   0  0  0  0  0  0  0  0  0  0  0  0
   -2.0625   -5.6645    0.0000 O   0  0  0  0  0  0  0  0  0  0  0  0
   -0.8250   -6.3789    0.0000 O   0  0  0  0  0  0  0  0  0  0  0  0
   -1.2375   -7.0934    0.0000 C   0  0  0  0  0  0  0  0  0  0  0  0
   -0.8250   -7.8079    0.0000 C   0  0  0  0  0  0  0  0  0  0  0  0
    0.0000   -4.1250    0.0000 N   0  0  0  0  0  0  0  0  0  0  0  0
   -0.7145   -3.7125    0.0000 C   0  0  0  0  0  0  0  0  0  0  0  0
   -0.7145   -2.8875    0.0000 C   0  0  0  0  0  0  0  0  0  0  0  0
    0.0000   -2.4750    0.0000 C   0  0  0  0  0  0  0  0  0  0  0  0
    0.0000   -1.6500    0.0000 C   0  0  0  0  0  0  0  0  0  0  0  0
    0.7145   -1.2375    0.0000 C   0  0  0  0  0  0  0  0  0  0  0  0
    0.7145   -0.4125    0.0000 C   0  0  0  0  0  0  0  0  0  0  0  0
    1.4289    0.0000    0.0000 N   0  0  0  0  0  0  0  0  0  0  0  0
    2.1434   -0.4125    0.0000 C   0  0  0  0  0  0  0  0  0  0  0  0
    2.8579    0.0000    0.0000 C   0  0  0  0  0  0  0  0  0  0  0  0
    3.5724   -0.4125    0.0000 C   0  0  0  0  0  0  0  0  0  0  0  0
    3.5724   -1.2375    0.0000 C   0  0  0  0  0  0  0  0  0  0  0  0
    2.8579   -1.6500    0.0000 C   0  0  0  0  0  0  0  0  0  0  0  0
    2.1434   -1.2375    0.0000 C   0  0  0  0  0  0  0  0  0  0  0  0
    1.4289   -1.6500    0.0000 C   0  0  0  0  0  0  0  0  0  0  0  0
    0.7145   -2.8875    0.0000 C   0  0  0  0  0  0  0  0  0  0  0  0
    0.7145   -3.7125    0.0000 C   0  0  0  0  0  0  0  0  0  0  0  0
  1  2  1  0  0  0  0
  2  3  1  0  0  0  0
  3  4  1  0  0  0  0
  4  5  1  0  0  0  0
  5  6  4  0  0  0  0
  6  7  4  0  0  0  0
  7  8  4  0  0  0  0
  8  9  4  0  0  0  0
  9 10  4  0  0  0  0
  5 10  4  0  0  0  0
  3 11  1  0  0  0  0
 11 12  1  0  0  0  0
 12 13  3  0  0  0  0
 11 14  1  0  0  0  0
 14 15  2  0  0  0  0
 14 16  1  0  0  0  0
 16 17  1  0  0  0  0
 17 18  1  0  0  0  0
  3 19  1  0  0  0  0
 19 20  1  0  0  0  0
 20 21  1  0  0  0  0
 21 22  1  0  0  0  0
 22 23  1  0  0  0  0
 23 24  1  0  0  0  0
 24 25  4  0  0  0  0
 25 26  4  0  0  0  0
 26 27  4  0  0  0  0
 27 28  4  0  0  0  0
 28 29  4  0  0  0  0
 29 30  4  0  0  0  0
 30 31  4  0  0  0  0
 31 32  4  0  0  0  0
 27 32  4  0  0  0  0
 32 33  4  0  0  0  0
 24 33  4  0  0  0  0
 22 34  1  0  0  0  0
 34 35  1  0  0  0  0
 19 35  1  0  0  0  0
M  END
> <ID>
CPD_4802

$$$$
CPD_4807
  Mrv1822 09091914012D          

 20 20  0  0  0  0            999 V2000
    1.2375    2.5855    0.0000 H   0  0  0  0  0  0  0  0  0  0  0  0
    0.8250    3.3000    0.0000 O   0  0  0  0  0  0  0  0  0  0  0  0
    0.0000    3.3000    0.0000 C   0  0  0  0  0  0  0  0  0  0  0  0
    0.0000    2.4750    0.0000 C   0  0  0  0  0  0  0  0  0  0  0  0
    0.7145    2.0625    0.0000 C   0  0  0  0  0  0  0  0  0  0  0  0
    1.4289    2.4750    0.0000 O   0  0  0  0  0  0  0  0  0  0  0  0
    0.7145    1.2375    0.0000 C   0  0  0  0  0  0  0  0  0  0  0  0
    1.4289    0.8250    0.0000 C   0  0  0  0  0  0  0  0  0  0  0  0
    2.1434    1.2375    0.0000 Cl  0  0  0  0  0  0  0  0  0  0  0  0
    1.4289   -0.0000    0.0000 C   0  0  0  0  0  0  0  0  0  0  0  0
    0.7145   -0.4125    0.0000 C   0  0  0  0  0  0  0  0  0  0  0  0
    0.7145   -1.2375    0.0000 Cl  0  0  0  0  0  0  0  0  0  0  0  0
    0.0000    0.0000    0.0000 C   0  0  0  0  0  0  0  0  0  0  0  0
    0.0000    0.8250    0.0000 C   0  0  0  0  0  0  0  0  0  0  0  0
   -0.8250    3.3000    0.0000 N   0  0  0  0  0  0  0  0  0  0  0  0
   -1.2375    2.5855    0.0000 C   0  0  0  0  0  0  0  0  0  0  0  0
   -1.2375    4.0145    0.0000 C   0  0  0  0  0  0  0  0  0  0  0  0
    0.0000    4.1250    0.0000 N   0  0  0  0  0  0  0  0  0  0  0  0
    0.7145    4.5375    0.0000 C   0  0  0  0  0  0  0  0  0  0  0  0
   -0.7145    4.5375    0.0000 C   0  0  0  0  0  0  0  0  0  0  0  0
  1  2  1  0  0  0  0
  2  3  1  0  0  0  0
  3  4  1  0  0  0  0
  4  5  1  0  0  0  0
  5  6  2  0  0  0  0
  5  7  1  0  0  0  0
  7  8  2  0  0  0  0
  8  9  1  0  0  0  0
  8 10  1  0  0  0  0
 10 11  2  0  0  0  0
 11 12  1  0  0  0  0
 11 13  1  0  0  0  0
 13 14  2  0  0  0  0
  7 14  1  0  0  0  0
  3 15  1  0  0  0  0
 15 16  1  0  0  0  0
 15 17  1  0  0  0  0
  3 18  1  0  0  0  0
 18 19  1  0  0  0  0
 18 20  1  0  0  0  0
M  END
> <ID>
CPD_4807

$$$$
CPD_4812
  Mrv1822 09091914012D          

 20 21  0  0  0  0            999 V2000
    2.8771   -2.9583    0.0000 H   0  0  0  0  0  0  0  0  0  0  0  0
    3.4604   -2.3749    0.0000 O   0  0  0  0  0  0  0  0  0  0  0  0
    2.8771   -1.7915    0.0000 C   0  0  0  0  0  0  0  0  0  0  0  0
    2.2937   -1.2082    0.0000 C   0  0  0  0  0  0  0  0  0  0  0  0
    2.2937   -2.3749    0.0000 C   0  0  0  0  0  0  0  0  0  0  0  0
    1.7103   -2.9583    0.0000 C   0  0  0  0  0  0  0  0  0  0  0  0
    1.1270   -3.5416    0.0000 C   0  0  0  0  0  0  0  0  0  0  0  0
    0.5436   -2.9583    0.0000 C   0  0  0  0  0  0  0  0  0  0  0  0
    1.7103   -4.1250    0.0000 C   0  0  0  0  0  0  0  0  0  0  0  0
    1.1270   -4.7084    0.0000 O   0  0  0  0  0  0  0  0  0  0  0  0
    0.5436   -4.1250    0.0000 C   0  0  0  0  0  0  0  0  0  0  0  0
    3.4604   -1.2082    0.0000 C   0  0  0  0  0  0  0  0  0  0  0  0
    3.2469   -0.4113    0.0000 C   0  0  0  0  0  0  0  0  0  0  0  0
    3.8303    0.1721    0.0000 C   0  0  0  0  0  0  0  0  0  0  0  0
    3.6167    0.9690    0.0000 C   0  0  0  0  0  0  0  0  0  0  0  0
    4.6271   -0.0415    0.0000 C   0  0  0  0  0  0  0  0  0  0  0  0
    4.8407   -0.8383    0.0000 N   0  0  0  0  0  0  0  0  0  0  0  0
    4.2573   -1.4217    0.0000 C   0  0  0  0  0  0  0  0  0  0  0  0
    4.4708   -2.2186    0.0000 O   0  0  0  0  0  0  0  0  0  0  0  0
    3.8875   -2.8020    0.0000 C   0  0  0  0  0  0  0  0  0  0  0  0
  1  2  1  0  0  0  0
  2  3  1  0  0  0  0
  3  4  1  0  0  0  0
  3  5  1  0  0  0  0
  5  6  3  0  0  0  0
  6  7  1  0  0  0  0
  7  8  1  0  0  0  0
  7  9  1  0  0  0  0
  9 10  1  0  0  0  0
 10 11  1  0  0  0  0
  7 11  1  0  0  0  0
  3 12  1  0  0  0  0
 12 13  2  0  0  0  0
 13 14  1  0  0  0  0
 14 15  1  0  0  0  0
 14 16  2  0  0  0  0
 16 17  1  0  0  0  0
 17 18  2  0  0  0  0
 12 18  1  0  0  0  0
 18 19  1  0  0  0  0
 19 20  1  0  0  0  0
M  END
> <ID>
CPD_4812

$$$$
CPD_4817
  Mrv1822 09091914012D          

 36 39  0  0  0  0            999 V2000
    1.4289   -2.4750    0.0000 H   0  0  0  0  0  0  0  0  0  0  0  0
    0.7145   -2.0625    0.0000 N   0  0  0  0  0  0  0  0  0  0  0  0
    0.0000   -2.4750    0.0000 C   0  0  0  0  0  0  0  0  0  0  0  0
   -0.7145   -2.0625    0.0000 O   0  0  0  0  0  0  0  0  0  0  0  0
    0.0000   -3.3000    0.0000 C   0  0  0  0  0  0  0  0  0  0  0  0
    0.7145   -3.7125    0.0000 C   0  0  0  0  0  0  0  0  0  0  0  0
    0.7145   -4.5375    0.0000 C   0  0  0  0  0  0  0  0  0  0  0  0
    0.0000   -4.9500    0.0000 C   0  0  0  0  0  0  0  0  0  0  0  0
    0.0000   -5.7750    0.0000 O   0  0  0  0  0  0  0  0  0  0  0  0
   -0.7145   -4.5375    0.0000 C   0  0  0  0  0  0  0  0  0  0  0  0
   -0.7145   -3.7125    0.0000 C   0  0  0  0  0  0  0  0  0  0  0  0
    0.7145   -1.2375    0.0000 C   0  0  0  0  0  0  0  0  0  0  0  0
   -0.1105   -1.2375    0.0000 C   0  0  0  0  0  0  0  0  0  0  0  0
   -0.5230   -0.5230    0.0000 C   0  0  0  0  0  0  0  0  0  0  0  0
   -1.3480   -0.5230    0.0000 C   0  0  0  0  0  0  0  0  0  0  0  0
   -1.7605   -1.2375    0.0000 N   0  0  0  0  0  0  0  0  0  0  0  0
   -1.3480   -1.9520    0.0000 C   0  0  0  0  0  0  0  0  0  0  0  0
   -1.7605   -2.6664    0.0000 C   0  0  0  0  0  0  0  0  0  0  0  0
   -2.5855   -2.6664    0.0000 C   0  0  0  0  0  0  0  0  0  0  0  0
   -2.9980   -1.9520    0.0000 C   0  0  0  0  0  0  0  0  0  0  0  0
   -2.5855   -1.2375    0.0000 C   0  0  0  0  0  0  0  0  0  0  0  0
   -3.8230   -1.9520    0.0000 C   0  0  0  0  0  0  0  0  0  0  0  0
   -4.2355   -2.6664    0.0000 O   0  0  0  0  0  0  0  0  0  0  0  0
   -4.2355   -1.2375    0.0000 O   0  0  0  0  0  0  0  0  0  0  0  0
    1.5395   -1.2375    0.0000 C   0  0  0  0  0  0  0  0  0  0  0  0
    1.9520   -0.5230    0.0000 C   0  0  0  0  0  0  0  0  0  0  0  0
    2.7770   -0.5230    0.0000 C   0  0  0  0  0  0  0  0  0  0  0  0
    3.1895   -1.2375    0.0000 C   0  0  0  0  0  0  0  0  0  0  0  0
    2.7770   -1.9520    0.0000 C   0  0  0  0  0  0  0  0  0  0  0  0
    1.9520   -1.9520    0.0000 C   0  0  0  0  0  0  0  0  0  0  0  0
    0.7145   -0.4125    0.0000 C   0  0  0  0  0  0  0  0  0  0  0  0
    0.0000    0.0000    0.0000 C   0  0  0  0  0  0  0  0  0  0  0  0
    0.0000    0.8250    0.0000 C   0  0  0  0  0  0  0  0  0  0  0  0
    0.7145    1.2375    0.0000 C   0  0  0  0  0  0  0  0  0  0  0  0
    1.4289    0.8250    0.0000 C   0  0  0  0  0  0  0  0  0  0  0  0
    1.4289   -0.0000    0.0000 C   0  0  0  0  0  0  0  0  0  0  0  0
  1  2  1  0  0  0  0
  2  3  1  0  0  0  0
  3  4  2  0  0  0  0
  3  5  1  0  0  0  0
  5  6  1  0  0  0  0
  6  7  1  0  0  0  0
  7  8  1  0  0  0  0
  8  9  1  0  0  0  0
  8 10  1  0  0  0  0
 10 11  1  0  0  0  0
  5 11  1  0  0  0  0
  2 12  1  0  0  0  0
 12 13  1  0  0  0  0
 13 14  1  0  0  0  0
 14 15  1  0  0  0  0
 15 16  1  0  0  0  0
 16 17  1  0  0  0  0
 17 18  1  0  0  0  0
 18 19  1  0  0  0  0
 19 20  1  0  0  0  0
 20 21  1  0  0  0  0
 16 21  1  0  0  0  0
 20 22  1  0  0  0  0
 22 23  1  0  0  0  0
 22 24  2  0  0  0  0
 12 25  1  0  0  0  0
 25 26  2  0  0  0  0
 26 27  1  0  0  0  0
 27 28  2  0  0  0  0
 28 29  1  0  0  0  0
 29 30  2  0  0  0  0
 25 30  1  0  0  0  0
 12 31  1  0  0  0  0
 31 32  2  0  0  0  0
 32 33  1  0  0  0  0
 33 34  2  0  0  0  0
 34 35  1  0  0  0  0
 35 36  2  0  0  0  0
 31 36  1  0  0  0  0
M  END
> <ID>
CPD_4817

$$$$
CPD_4822
  Mrv1822 09091914012D          

 31 33  0  0  0  0            999 V2000
    4.0507   -6.3532    0.0000 H   0  0  0  0  0  0  0  0  0  0  0  0
    3.5106   -5.7296    0.0000 N   0  0  0  0  0  0  0  0  0  0  0  0
    2.7004   -5.8855    0.0000 C   0  0  0  0  0  0  0  0  0  0  0  0
    2.1604   -5.2618    0.0000 C   0  0  0  0  0  0  0  0  0  0  0  0
    1.3502   -5.4177    0.0000 C   0  0  0  0  0  0  0  0  0  0  0  0
    1.0802   -6.1973    0.0000 O   0  0  0  0  0  0  0  0  0  0  0  0
    0.8101   -4.7941    0.0000 O   0  0  0  0  0  0  0  0  0  0  0  0
    0.0000   -4.9500    0.0000 C   0  0  0  0  0  0  0  0  0  0  0  0
   -0.5401   -4.3264    0.0000 C   0  0  0  0  0  0  0  0  0  0  0  0
    2.4304   -6.6650    0.0000 C   0  0  0  0  0  0  0  0  0  0  0  0
    2.9705   -7.2887    0.0000 C   0  0  0  0  0  0  0  0  0  0  0  0
    2.7004   -8.0682    0.0000 N   0  0  0  0  0  0  0  0  0  0  0  0
    1.8903   -8.2241    0.0000 C   0  0  0  0  0  0  0  0  0  0  0  0
    1.6203   -9.0037    0.0000 O   0  0  0  0  0  0  0  0  0  0  0  0
    0.8101   -9.1596    0.0000 C   0  0  0  0  0  0  0  0  0  0  0  0
    0.5401   -9.9391    0.0000 C   0  0  0  0  0  0  0  0  0  0  0  0
   -0.2700  -10.0950    0.0000 C   0  0  0  0  0  0  0  0  0  0  0  0
   -0.8101   -9.4714    0.0000 C   0  0  0  0  0  0  0  0  0  0  0  0
   -0.5401   -8.6918    0.0000 C   0  0  0  0  0  0  0  0  0  0  0  0
    0.2700   -8.5359    0.0000 C   0  0  0  0  0  0  0  0  0  0  0  0
    1.3502   -7.6005    0.0000 C   0  0  0  0  0  0  0  0  0  0  0  0
    1.6203   -6.8209    0.0000 C   0  0  0  0  0  0  0  0  0  0  0  0
    3.7806   -4.9500    0.0000 C   0  0  0  0  0  0  0  0  0  0  0  0
    3.2405   -4.3264    0.0000 O   0  0  0  0  0  0  0  0  0  0  0  0
    4.5908   -4.7941    0.0000 C   0  0  0  0  0  0  0  0  0  0  0  0
    4.8608   -4.0145    0.0000 C   0  0  0  0  0  0  0  0  0  0  0  0
    5.6709   -3.8586    0.0000 C   0  0  0  0  0  0  0  0  0  0  0  0
    6.2110   -4.4823    0.0000 C   0  0  0  0  0  0  0  0  0  0  0  0
    7.0212   -4.3264    0.0000 O   0  0  0  0  0  0  0  0  0  0  0  0
    5.9410   -5.2618    0.0000 C   0  0  0  0  0  0  0  0  0  0  0  0
    5.1308   -5.4177    0.0000 C   0  0  0  0  0  0  0  0  0  0  0  0
  1  2  1  0  0  0  0
  2  3  1  0  0  0  0
  3  4  1  0  0  0  0
  4  5  1  0  0  0  0
  5  6  2  0  0  0  0
  5  7  1  0  0  0  0
  7  8  1  0  0  0  0
  8  9  1  0  0  0  0
  3 10  1  0  0  0  0
 10 11  2  0  0  0  0
 11 12  1  0  0  0  0
 12 13  2  0  0  0  0
 13 14  1  0  0  0  0
 14 15  1  0  0  0  0
 15 16  1  0  0  0  0
 16 17  1  0  0  0  0
 17 18  1  0  0  0  0
 18 19  1  0  0  0  0
 19 20  1  0  0  0  0
 15 20  1  0  0  0  0
 13 21  1  0  0  0  0
 21 22  2  0  0  0  0
 10 22  1  0  0  0  0
  2 23  1  0  0  0  0
 23 24  2  0  0  0  0
 23 25  1  0  0  0  0
 25 26  1  0  0  0  0
 26 27  1  0  0  0  0
 27 28  1  0  0  0  0
 28 29  1  0  0  0  0
 28 30  1  0  0  0  0
 30 31  1  0  0  0  0
 25 31  1  0  0  0  0
M  END
> <ID>
CPD_4822

$$$$
CPD_4827
  Mrv1822 09091914012D          

 30 32  0  0  0  0            999 V2000
    3.6829   -2.4750    0.0000 H   0  0  0  0  0  0  0  0  0  0  0  0
    4.5079   -2.4750    0.0000 N   0  0  0  0  0  0  0  0  0  0  0  0
    4.0954   -1.7605    0.0000 C   0  0  0  0  0  0  0  0  0  0  0  0
    3.2704   -1.7605    0.0000 C   0  0  0  0  0  0  0  0  0  0  0  0
    2.8579   -2.4750    0.0000 C   0  0  0  0  0  0  0  0  0  0  0  0
    2.0329   -2.4750    0.0000 O   0  0  0  0  0  0  0  0  0  0  0  0
    3.2704   -3.1895    0.0000 O   0  0  0  0  0  0  0  0  0  0  0  0
    4.0954   -3.1895    0.0000 C   0  0  0  0  0  0  0  0  0  0  0  0
    2.8579   -1.0461    0.0000 C   0  0  0  0  0  0  0  0  0  0  0  0
    2.0329   -1.0461    0.0000 C   0  0  0  0  0  0  0  0  0  0  0  0
    1.6204   -0.3316    0.0000 C   0  0  0  0  0  0  0  0  0  0  0  0
    2.0329    0.3829    0.0000 C   0  0  0  0  0  0  0  0  0  0  0  0
    2.8579    0.3829    0.0000 C   0  0  0  0  0  0  0  0  0  0  0  0
    3.2704   -0.3316    0.0000 C   0  0  0  0  0  0  0  0  0  0  0  0
    4.5079   -1.0461    0.0000 C   0  0  0  0  0  0  0  0  0  0  0  0
    4.0954   -0.3316    0.0000 C   0  0  0  0  0  0  0  0  0  0  0  0
    4.5079    0.3829    0.0000 C   0  0  0  0  0  0  0  0  0  0  0  0
    5.3329    0.3829    0.0000 C   0  0  0  0  0  0  0  0  0  0  0  0
    5.7454    1.0974    0.0000 N   0  0  0  0  0  0  0  0  0  0  0  0
    5.7454   -0.3316    0.0000 C   0  0  0  0  0  0  0  0  0  0  0  0
    5.3329   -1.0461    0.0000 C   0  0  0  0  0  0  0  0  0  0  0  0
    5.3329   -2.4750    0.0000 C   0  0  0  0  0  0  0  0  0  0  0  0
    5.7454   -1.7605    0.0000 O   0  0  0  0  0  0  0  0  0  0  0  0
    5.7454   -3.1895    0.0000 C   0  0  0  0  0  0  0  0  0  0  0  0
    6.5704   -3.1895    0.0000 C   0  0  0  0  0  0  0  0  0  0  0  0
    6.9829   -3.9039    0.0000 C   0  0  0  0  0  0  0  0  0  0  0  0
    6.5704   -4.6184    0.0000 C   0  0  0  0  0  0  0  0  0  0  0  0
    6.9829   -5.3329    0.0000 O   0  0  0  0  0  0  0  0  0  0  0  0
    5.7454   -4.6184    0.0000 C   0  0  0  0  0  0  0  0  0  0  0  0
    5.3329   -3.9039    0.0000 C   0  0  0  0  0  0  0  0  0  0  0  0
  1  2  1  0  0  0  0
  2  3  1  0  0  0  0
  3  4  1  0  0  0  0
  4  5  1  0  0  0  0
  5  6  2  0  0  0  0
  5  7  1  0  0  0  0
  7  8  1  0  0  0  0
  4  9  1  0  0  0  0
  9 10  2  0  0  0  0
 10 11  1  0  0  0  0
 11 12  2  0  0  0  0
 12 13  1  0  0  0  0
 13 14  2  0  0  0  0
  9 14  1  0  0  0  0
  3 15  1  0  0  0  0
 15 16  2  0  0  0  0
 16 17  1  0  0  0  0
 17 18  2  0  0  0  0
 18 19  1  0  0  0  0
 18 20  1  0  0  0  0
 20 21  2  0  0  0  0
 15 21  1  0  0  0  0
  2 22  1  0  0  0  0
 22 23  2  0  0  0  0
 22 24  1  0  0  0  0
 24 25  1  0  0  0  0
 25 26  1  0  0  0  0
 26 27  1  0  0  0  0
 27 28  1  0  0  0  0
 27 29  1  0  0  0  0
 29 30  1  0  0  0  0
 24 30  1  0  0  0  0
M  END
> <ID>
CPD_4827

$$$$
CPD_4832
  Mrv1822 09091914012D          

 17 18  0  0  0  0            999 V2000
    0.7145   -2.0625    0.0000 F   0  0  0  0  0  0  0  0  0  0  0  0
    0.7145   -2.8875    0.0000 C   0  0  0  0  0  0  0  0  0  0  0  0
    1.4289   -3.3000    0.0000 C   0  0  0  0  0  0  0  0  0  0  0  0
    1.4289   -4.1250    0.0000 C   0  0  0  0  0  0  0  0  0  0  0  0
    0.7145   -4.5375    0.0000 C   0  0  0  0  0  0  0  0  0  0  0  0
    0.0000   -4.1250    0.0000 C   0  0  0  0  0  0  0  0  0  0  0  0
    0.0000   -3.3000    0.0000 C   0  0  0  0  0  0  0  0  0  0  0  0
    0.7145   -5.3625    0.0000 C   0  0  0  0  0  0  0  0  0  0  0  0
    0.7145   -6.1875    0.0000 C   0  0  0  0  0  0  0  0  0  0  0  0
    0.7145   -7.0125    0.0000 C   0  0  0  0  0  0  0  0  0  0  0  0
    1.4289   -7.4250    0.0000 C   0  0  0  0  0  0  0  0  0  0  0  0
    2.1434   -7.0125    0.0000 Cl  0  0  0  0  0  0  0  0  0  0  0  0
    1.4289   -8.2500    0.0000 C   0  0  0  0  0  0  0  0  0  0  0  0
    0.7145   -8.6625    0.0000 N   0  0  0  0  0  0  0  0  0  0  0  0
   -0.0000   -8.2500    0.0000 C   0  0  0  0  0  0  0  0  0  0  0  0
   -0.0000   -7.4250    0.0000 C   0  0  0  0  0  0  0  0  0  0  0  0
   -0.7145   -7.0125    0.0000 Cl  0  0  0  0  0  0  0  0  0  0  0  0
  1  2  1  0  0  0  0
  2  3  2  0  0  0  0
  3  4  1  0  0  0  0
  4  5  2  0  0  0  0
  5  6  1  0  0  0  0
  6  7  2  0  0  0  0
  2  7  1  0  0  0  0
  5  8  1  0  0  0  0
  8  9  3  0  0  0  0
  9 10  1  0  0  0  0
 10 11  2  0  0  0  0
 11 12  1  0  0  0  0
 11 13  1  0  0  0  0
 13 14  2  0  0  0  0
 14 15  1  0  0  0  0
 15 16  2  0  0  0  0
 10 16  1  0  0  0  0
 16 17  1  0  0  0  0
M  END
> <ID>
CPD_4832

$$$$
CPD_4837
  Mrv1822 09091914012D          

 18 19  0  0  0  0            999 V2000
    0.7145   -2.0625    0.0000 C   0  0  0  0  0  0  0  0  0  0  0  0
    0.7145   -2.8875    0.0000 C   0  0  0  0  0  0  0  0  0  0  0  0
    1.4289   -3.3000    0.0000 C   0  0  0  0  0  0  0  0  0  0  0  0
    1.4289   -4.1250    0.0000 N   0  0  0  0  0  0  0  0  0  0  0  0
    0.7145   -4.5375    0.0000 C   0  0  0  0  0  0  0  0  0  0  0  0
    0.7145   -5.3625    0.0000 C   0  0  0  0  0  0  0  0  0  0  0  0
    0.7145   -6.1875    0.0000 C   0  0  0  0  0  0  0  0  0  0  0  0
    0.7145   -7.0125    0.0000 C   0  0  0  0  0  0  0  0  0  0  0  0
    1.4289   -7.4250    0.0000 N   0  0  0  0  0  0  0  0  0  0  0  0
    1.4289   -8.2500    0.0000 C   0  0  0  0  0  0  0  0  0  0  0  0
    2.1434   -8.6625    0.0000 C   0  0  0  0  0  0  0  0  0  0  0  0
    0.7145   -8.6625    0.0000 C   0  0  0  0  0  0  0  0  0  0  0  0
   -0.0000   -8.2500    0.0000 C   0  0  0  0  0  0  0  0  0  0  0  0
   -0.7145   -8.6625    0.0000 Br  0  0  0  0  0  0  0  0  0  0  0  0
   -0.0000   -7.4250    0.0000 C   0  0  0  0  0  0  0  0  0  0  0  0
    0.0000   -4.1250    0.0000 C   0  0  0  0  0  0  0  0  0  0  0  0
   -0.7145   -4.5375    0.0000 N   0  0  0  0  0  0  0  0  0  0  0  0
    0.0000   -3.3000    0.0000 C   0  0  0  0  0  0  0  0  0  0  0  0
  1  2  1  0  0  0  0
  2  3  2  0  0  0  0
  3  4  1  0  0  0  0
  4  5  2  0  0  0  0
  5  6  1  0  0  0  0
  6  7  3  0  0  0  0
  7  8  1  0  0  0  0
  8  9  2  0  0  0  0
  9 10  1  0  0  0  0
 10 11  1  0  0  0  0
 10 12  2  0  0  0  0
 12 13  1  0  0  0  0
 13 14  1  0  0  0  0
 13 15  2  0  0  0  0
  8 15  1  0  0  0  0
  5 16  1  0  0  0  0
 16 17  1  0  0  0  0
 16 18  2  0  0  0  0
  2 18  1  0  0  0  0
M  END
> <ID>
CPD_4837

$$$$
CPD_4842
  Mrv1822 09091914012D          

 24 25  0  0  0  0            999 V2000
    1.4289   -6.6000    0.0000 C   0  0  0  0  0  0  0  0  0  0  0  0
    2.1434   -6.1875    0.0000 C   0  0  0  0  0  0  0  0  0  0  0  0
    2.8579   -6.6000    0.0000 O   0  0  0  0  0  0  0  0  0  0  0  0
    3.5724   -6.1875    0.0000 C   0  0  0  0  0  0  0  0  0  0  0  0
    3.5724   -5.3625    0.0000 O   0  0  0  0  0  0  0  0  0  0  0  0
    4.2868   -6.6000    0.0000 C   0  0  0  0  0  0  0  0  0  0  0  0
    5.0013   -6.1875    0.0000 C   0  0  0  0  0  0  0  0  0  0  0  0
    5.0013   -5.3625    0.0000 N   0  0  0  0  0  0  0  0  0  0  0  0
    5.7158   -6.6000    0.0000 C   0  0  0  0  0  0  0  0  0  0  0  0
    6.4302   -6.1875    0.0000 C   0  0  0  0  0  0  0  0  0  0  0  0
    7.1447   -6.6000    0.0000 C   0  0  0  0  0  0  0  0  0  0  0  0
    7.1447   -7.4250    0.0000 C   0  0  0  0  0  0  0  0  0  0  0  0
    6.4302   -7.8375    0.0000 C   0  0  0  0  0  0  0  0  0  0  0  0
    5.7158   -7.4250    0.0000 C   0  0  0  0  0  0  0  0  0  0  0  0
    7.8592   -7.8375    0.0000 C   0  0  0  0  0  0  0  0  0  0  0  0
    8.5737   -7.4250    0.0000 C   0  0  0  0  0  0  0  0  0  0  0  0
    8.5737   -6.6000    0.0000 F   0  0  0  0  0  0  0  0  0  0  0  0
    9.2881   -7.8375    0.0000 C   0  0  0  0  0  0  0  0  0  0  0  0
   10.0026   -7.4250    0.0000 O   0  0  0  0  0  0  0  0  0  0  0  0
   10.7171   -7.8375    0.0000 C   0  0  0  0  0  0  0  0  0  0  0  0
    9.2881   -8.6625    0.0000 C   0  0  0  0  0  0  0  0  0  0  0  0
    8.5737   -9.0750    0.0000 C   0  0  0  0  0  0  0  0  0  0  0  0
    8.5737   -9.9000    0.0000 C   0  0  0  0  0  0  0  0  0  0  0  0
    7.8592   -8.6625    0.0000 C   0  0  0  0  0  0  0  0  0  0  0  0
  1  2  1  0  0  0  0
  2  3  1  0  0  0  0
  3  4  1  0  0  0  0
  4  5  2  0  0  0  0
  4  6  1  0  0  0  0
  6  7  1  0  0  0  0
  7  8  1  0  0  0  0
  7  9  1  0  0  0  0
  9 10  2  0  0  0  0
 10 11  1  0  0  0  0
 11 12  2  0  0  0  0
 12 13  1  0  0  0  0
 13 14  2  0  0  0  0
  9 14  1  0  0  0  0
 12 15  1  0  0  0  0
 15 16  2  0  0  0  0
 16 17  1  0  0  0  0
 16 18  1  0  0  0  0
 18 19  1  0  0  0  0
 19 20  1  0  0  0  0
 18 21  2  0  0  0  0
 21 22  1  0  0  0  0
 22 23  1  0  0  0  0
 22 24  2  0  0  0  0
 15 24  1  0  0  0  0
M  END
> <ID>
CPD_4842

$$$$
CPD_4847
  Mrv1822 09091914012D          

 21 23  0  0  0  0            999 V2000
    0.0768   -2.3215    0.0000 C   0  0  0  0  0  0  0  0  0  0  0  0
    0.8838   -2.1500    0.0000 C   0  0  0  0  0  0  0  0  0  0  0  0
    1.1387   -1.3654    0.0000 N   0  0  0  0  0  0  0  0  0  0  0  0
    0.6538   -0.6979    0.0000 C   0  0  0  0  0  0  0  0  0  0  0  0
    1.1387   -0.0305    0.0000 N   0  0  0  0  0  0  0  0  0  0  0  0
    1.9233   -0.2854    0.0000 C   0  0  0  0  0  0  0  0  0  0  0  0
    2.6378    0.1271    0.0000 C   0  0  0  0  0  0  0  0  0  0  0  0
    3.3523   -0.2854    0.0000 C   0  0  0  0  0  0  0  0  0  0  0  0
    3.3523   -1.1104    0.0000 C   0  0  0  0  0  0  0  0  0  0  0  0
    2.6378   -1.5229    0.0000 C   0  0  0  0  0  0  0  0  0  0  0  0
    1.9233   -1.1104    0.0000 C   0  0  0  0  0  0  0  0  0  0  0  0
    4.0668    0.1271    0.0000 C   0  0  0  0  0  0  0  0  0  0  0  0
    4.0668    0.9521    0.0000 C   0  0  0  0  0  0  0  0  0  0  0  0
    3.3523    1.3646    0.0000 F   0  0  0  0  0  0  0  0  0  0  0  0
    4.7812    1.3646    0.0000 C   0  0  0  0  0  0  0  0  0  0  0  0
    4.7812    2.1896    0.0000 O   0  0  0  0  0  0  0  0  0  0  0  0
    4.0668    2.6021    0.0000 C   0  0  0  0  0  0  0  0  0  0  0  0
    5.4957    0.9521    0.0000 C   0  0  0  0  0  0  0  0  0  0  0  0
    5.4957    0.1271    0.0000 C   0  0  0  0  0  0  0  0  0  0  0  0
    6.2102   -0.2854    0.0000 C   0  0  0  0  0  0  0  0  0  0  0  0
    4.7812   -0.2854    0.0000 C   0  0  0  0  0  0  0  0  0  0  0  0
  1  2  1  0  0  0  0
  2  3  1  0  0  0  0
  3  4  1  0  0  0  0
  4  5  2  0  0  0  0
  5  6  1  0  0  0  0
  6  7  2  0  0  0  0
  7  8  1  0  0  0  0
  8  9  2  0  0  0  0
  9 10  1  0  0  0  0
 10 11  2  0  0  0  0
  3 11  1  0  0  0  0
  6 11  1  0  0  0  0
  8 12  1  0  0  0  0
 12 13  2  0  0  0  0
 13 14  1  0  0  0  0
 13 15  1  0  0  0  0
 15 16  1  0  0  0  0
 16 17  1  0  0  0  0
 15 18  2  0  0  0  0
 18 19  1  0  0  0  0
 19 20  1  0  0  0  0
 19 21  2  0  0  0  0
 12 21  1  0  0  0  0
M  END
> <ID>
CPD_4847

$$$$
CPD_4852
  Mrv1822 09091914012D          

 23 25  0  0  0  0            999 V2000
    1.5356    7.2402    0.0000 C   0  0  0  0  0  0  0  0  0  0  0  0
    0.8212    6.8277    0.0000 O   0  0  0  0  0  0  0  0  0  0  0  0
    0.8212    6.0027    0.0000 C   0  0  0  0  0  0  0  0  0  0  0  0
    1.5356    5.5902    0.0000 C   0  0  0  0  0  0  0  0  0  0  0  0
    1.5356    4.7652    0.0000 C   0  0  0  0  0  0  0  0  0  0  0  0
    2.2501    4.3527    0.0000 C   0  0  0  0  0  0  0  0  0  0  0  0
    0.8212    4.3527    0.0000 C   0  0  0  0  0  0  0  0  0  0  0  0
    0.1067    4.7652    0.0000 C   0  0  0  0  0  0  0  0  0  0  0  0
    0.1067    5.5902    0.0000 C   0  0  0  0  0  0  0  0  0  0  0  0
   -0.6078    6.0027    0.0000 F   0  0  0  0  0  0  0  0  0  0  0  0
   -0.6078    4.3527    0.0000 C   0  0  0  0  0  0  0  0  0  0  0  0
   -0.6078    3.5277    0.0000 C   0  0  0  0  0  0  0  0  0  0  0  0
   -1.3222    3.1152    0.0000 C   0  0  0  0  0  0  0  0  0  0  0  0
   -2.0367    3.5277    0.0000 C   0  0  0  0  0  0  0  0  0  0  0  0
   -2.0367    4.3527    0.0000 C   0  0  0  0  0  0  0  0  0  0  0  0
   -1.3222    4.7652    0.0000 C   0  0  0  0  0  0  0  0  0  0  0  0
   -1.3222    2.2902    0.0000 C   0  0  0  0  0  0  0  0  0  0  0  0
   -0.6548    1.8053    0.0000 C   0  0  0  0  0  0  0  0  0  0  0  0
   -0.9097    1.0206    0.0000 S   0  0  0  0  0  0  0  0  0  0  0  0
   -1.7347    1.0206    0.0000 C   0  0  0  0  0  0  0  0  0  0  0  0
   -2.2197    0.3532    0.0000 C   0  0  0  0  0  0  0  0  0  0  0  0
   -1.8841   -0.4005    0.0000 N   0  0  0  0  0  0  0  0  0  0  0  0
   -1.9897    1.8053    0.0000 N   0  0  0  0  0  0  0  0  0  0  0  0
  1  2  1  0  0  0  0
  2  3  1  0  0  0  0
  3  4  2  0  0  0  0
  4  5  1  0  0  0  0
  5  6  1  0  0  0  0
  5  7  2  0  0  0  0
  7  8  1  0  0  0  0
  8  9  2  0  0  0  0
  3  9  1  0  0  0  0
  9 10  1  0  0  0  0
  8 11  1  0  0  0  0
 11 12  2  0  0  0  0
 12 13  1  0  0  0  0
 13 14  2  0  0  0  0
 14 15  1  0  0  0  0
 15 16  2  0  0  0  0
 11 16  1  0  0  0  0
 13 17  1  0  0  0  0
 17 18  2  0  0  0  0
 18 19  1  0  0  0  0
 19 20  1  0  0  0  0
 20 21  1  0  0  0  0
 21 22  1  0  0  0  0
 20 23  2  0  0  0  0
 17 23  1  0  0  0  0
M  END
> <ID>
CPD_4852

$$$$
CPD_4857
  Mrv1822 09091914012D          

 27 29  0  0  0  0            999 V2000
    2.8579   -4.1250    0.0000 C   0  0  0  0  0  0  0  0  0  0  0  0
    2.8579   -4.9500    0.0000 C   0  0  0  0  0  0  0  0  0  0  0  0
    3.5253   -5.4349    0.0000 C   0  0  0  0  0  0  0  0  0  0  0  0
    4.3099   -5.1800    0.0000 C   0  0  0  0  0  0  0  0  0  0  0  0
    3.2704   -6.2195    0.0000 C   0  0  0  0  0  0  0  0  0  0  0  0
    2.4454   -6.2195    0.0000 C   0  0  0  0  0  0  0  0  0  0  0  0
    2.1904   -5.4349    0.0000 S   0  0  0  0  0  0  0  0  0  0  0  0
    3.7553   -6.8870    0.0000 C   0  0  0  0  0  0  0  0  0  0  0  0
    3.4197   -7.6407    0.0000 O   0  0  0  0  0  0  0  0  0  0  0  0
    4.5758   -6.8007    0.0000 C   0  0  0  0  0  0  0  0  0  0  0  0
    4.9113   -6.0471    0.0000 C   0  0  0  0  0  0  0  0  0  0  0  0
    5.7318   -5.9608    0.0000 C   0  0  0  0  0  0  0  0  0  0  0  0
    6.0674   -5.2072    0.0000 F   0  0  0  0  0  0  0  0  0  0  0  0
    6.2167   -6.6283    0.0000 C   0  0  0  0  0  0  0  0  0  0  0  0
    5.8812   -7.3820    0.0000 C   0  0  0  0  0  0  0  0  0  0  0  0
    5.0607   -7.4682    0.0000 C   0  0  0  0  0  0  0  0  0  0  0  0
    6.3661   -8.0494    0.0000 C   0  0  0  0  0  0  0  0  0  0  0  0
    6.0306   -8.8031    0.0000 O   0  0  0  0  0  0  0  0  0  0  0  0
    7.1866   -7.9632    0.0000 N   0  0  0  0  0  0  0  0  0  0  0  0
    7.6715   -8.6306    0.0000 C   0  0  0  0  0  0  0  0  0  0  0  0
    8.4920   -8.5444    0.0000 C   0  0  0  0  0  0  0  0  0  0  0  0
    8.8276   -7.7907    0.0000 Br  0  0  0  0  0  0  0  0  0  0  0  0
    8.9769   -9.2118    0.0000 C   0  0  0  0  0  0  0  0  0  0  0  0
    8.6414   -9.9655    0.0000 C   0  0  0  0  0  0  0  0  0  0  0  0
    9.1263  -10.6329    0.0000 C   0  0  0  0  0  0  0  0  0  0  0  0
    7.8209  -10.0517    0.0000 C   0  0  0  0  0  0  0  0  0  0  0  0
    7.3360   -9.3843    0.0000 C   0  0  0  0  0  0  0  0  0  0  0  0
  1  2  1  0  0  0  0
  2  3  2  0  0  0  0
  3  4  1  0  0  0  0
  3  5  1  0  0  0  0
  5  6  2  0  0  0  0
  6  7  1  0  0  0  0
  2  7  1  0  0  0  0
  5  8  1  0  0  0  0
  8  9  2  0  0  0  0
  8 10  1  0  0  0  0
 10 11  2  0  0  0  0
 11 12  1  0  0  0  0
 12 13  1  0  0  0  0
 12 14  2  0  0  0  0
 14 15  1  0  0  0  0
 15 16  2  0  0  0  0
 10 16  1  0  0  0  0
 15 17  1  0  0  0  0
 17 18  2  0  0  0  0
 17 19  1  0  0  0  0
 19 20  1  0  0  0  0
 20 21  2  0  0  0  0
 21 22  1  0  0  0  0
 21 23  1  0  0  0  0
 23 24  2  0  0  0  0
 24 25  1  0  0  0  0
 24 26  1  0  0  0  0
 26 27  2  0  0  0  0
 20 27  1  0  0  0  0
M  END
> <ID>
CPD_4857

$$$$
CPD_4862
  Mrv1822 09091914012D          

 33 36  0  0  0  0            999 V2000
    1.4289   -4.1250    0.0000 C   0  0  0  0  0  0  0  0  0  0  0  0
    1.4289   -4.9500    0.0000 C   0  0  0  0  0  0  0  0  0  0  0  0
    2.1434   -5.3625    0.0000 C   0  0  0  0  0  0  0  0  0  0  0  0
    2.1434   -6.1875    0.0000 N   0  0  0  0  0  0  0  0  0  0  0  0
    1.4289   -6.6000    0.0000 C   0  0  0  0  0  0  0  0  0  0  0  0
    0.7145   -6.1875    0.0000 C   0  0  0  0  0  0  0  0  0  0  0  0
    0.0000   -6.6000    0.0000 C   0  0  0  0  0  0  0  0  0  0  0  0
    0.7145   -5.3625    0.0000 O   0  0  0  0  0  0  0  0  0  0  0  0
    2.8579   -6.6000    0.0000 C   0  0  0  0  0  0  0  0  0  0  0  0
    3.5724   -6.1875    0.0000 C   0  0  0  0  0  0  0  0  0  0  0  0
    4.2868   -6.6000    0.0000 C   0  0  0  0  0  0  0  0  0  0  0  0
    4.2868   -7.4250    0.0000 C   0  0  0  0  0  0  0  0  0  0  0  0
    5.0013   -7.8375    0.0000 N   0  0  0  0  0  0  0  0  0  0  0  0
    3.5724   -7.8375    0.0000 C   0  0  0  0  0  0  0  0  0  0  0  0
    2.8579   -7.4250    0.0000 C   0  0  0  0  0  0  0  0  0  0  0  0
    3.5724   -5.3625    0.0000 C   0  0  0  0  0  0  0  0  0  0  0  0
    2.8579   -4.9500    0.0000 C   0  0  0  0  0  0  0  0  0  0  0  0
    2.8579   -4.1250    0.0000 C   0  0  0  0  0  0  0  0  0  0  0  0
    2.1434   -3.7125    0.0000 F   0  0  0  0  0  0  0  0  0  0  0  0
    3.5724   -3.7125    0.0000 C   0  0  0  0  0  0  0  0  0  0  0  0
    4.2868   -4.1250    0.0000 C   0  0  0  0  0  0  0  0  0  0  0  0
    4.2868   -4.9500    0.0000 C   0  0  0  0  0  0  0  0  0  0  0  0
    5.0013   -3.7125    0.0000 C   0  0  0  0  0  0  0  0  0  0  0  0
    5.7158   -4.1250    0.0000 O   0  0  0  0  0  0  0  0  0  0  0  0
    5.0013   -2.8875    0.0000 N   0  0  0  0  0  0  0  0  0  0  0  0
    5.7158   -2.4750    0.0000 C   0  0  0  0  0  0  0  0  0  0  0  0
    5.7158   -1.6500    0.0000 C   0  0  0  0  0  0  0  0  0  0  0  0
    5.0013   -1.2375    0.0000 Br  0  0  0  0  0  0  0  0  0  0  0  0
    6.4302   -1.2375    0.0000 C   0  0  0  0  0  0  0  0  0  0  0  0
    7.1447   -1.6500    0.0000 C   0  0  0  0  0  0  0  0  0  0  0  0
    7.8592   -1.2375    0.0000 C   0  0  0  0  0  0  0  0  0  0  0  0
    7.1447   -2.4750    0.0000 C   0  0  0  0  0  0  0  0  0  0  0  0
    6.4302   -2.8875    0.0000 C   0  0  0  0  0  0  0  0  0  0  0  0
  1  2  1  0  0  0  0
  2  3  1  0  0  0  0
  3  4  1  0  0  0  0
  4  5  1  0  0  0  0
  5  6  1  0  0  0  0
  6  7  1  0  0  0  0
  6  8  1  0  0  0  0
  2  8  1  0  0  0  0
  4  9  1  0  0  0  0
  9 10  2  0  0  0  0
 10 11  1  0  0  0  0
 11 12  2  0  0  0  0
 12 13  1  0  0  0  0
 12 14  1  0  0  0  0
 14 15  2  0  0  0  0
  9 15  1  0  0  0  0
 10 16  1  0  0  0  0
 16 17  2  0  0  0  0
 17 18  1  0  0  0  0
 18 19  1  0  0  0  0
 18 20  2  0  0  0  0
 20 21  1  0  0  0  0
 21 22  2  0  0  0  0
 16 22  1  0  0  0  0
 21 23  1  0  0  0  0
 23 24  2  0  0  0  0
 23 25  1  0  0  0  0
 25 26  1  0  0  0  0
 26 27  2  0  0  0  0
 27 28  1  0  0  0  0
 27 29  1  0  0  0  0
 29 30  2  0  0  0  0
 30 31  1  0  0  0  0
 30 32  1  0  0  0  0
 32 33  2  0  0  0  0
 26 33  1  0  0  0  0
M  END
> <ID>
CPD_4862

$$$$
CPD_4867
  Mrv1822 09091914012D          

 21 22  0  0  0  0            999 V2000
    2.1434   -7.8375    0.0000 C   0  0  0  0  0  0  0  0  0  0  0  0
    2.8579   -7.4250    0.0000 C   0  0  0  0  0  0  0  0  0  0  0  0
    3.5724   -7.8375    0.0000 O   0  0  0  0  0  0  0  0  0  0  0  0
    4.2868   -7.4250    0.0000 C   0  0  0  0  0  0  0  0  0  0  0  0
    5.0013   -7.8375    0.0000 C   0  0  0  0  0  0  0  0  0  0  0  0
    5.7158   -7.4250    0.0000 O   0  0  0  0  0  0  0  0  0  0  0  0
    6.4302   -7.8375    0.0000 C   0  0  0  0  0  0  0  0  0  0  0  0
    7.1447   -7.4250    0.0000 C   0  0  0  0  0  0  0  0  0  0  0  0
    7.8592   -7.8375    0.0000 C   0  0  0  0  0  0  0  0  0  0  0  0
    7.8592   -8.6625    0.0000 C   0  0  0  0  0  0  0  0  0  0  0  0
    8.5737   -9.0750    0.0000 C   0  0  0  0  0  0  0  0  0  0  0  0
    9.2881   -8.6625    0.0000 C   0  0  0  0  0  0  0  0  0  0  0  0
    9.2881   -7.8375    0.0000 O   0  0  0  0  0  0  0  0  0  0  0  0
   10.0026   -9.0750    0.0000 C   0  0  0  0  0  0  0  0  0  0  0  0
   10.7171   -8.6625    0.0000 C   0  0  0  0  0  0  0  0  0  0  0  0
   11.4315   -9.0750    0.0000 C   0  0  0  0  0  0  0  0  0  0  0  0
   11.4315   -9.9000    0.0000 C   0  0  0  0  0  0  0  0  0  0  0  0
   10.7171  -10.3125    0.0000 C   0  0  0  0  0  0  0  0  0  0  0  0
   10.0026   -9.9000    0.0000 N   0  0  0  0  0  0  0  0  0  0  0  0
    7.1447   -9.0750    0.0000 C   0  0  0  0  0  0  0  0  0  0  0  0
    6.4302   -8.6625    0.0000 C   0  0  0  0  0  0  0  0  0  0  0  0
  1  2  1  0  0  0  0
  2  3  1  0  0  0  0
  3  4  1  0  0  0  0
  4  5  1  0  0  0  0
  5  6  1  0  0  0  0
  6  7  1  0  0  0  0
  7  8  2  0  0  0  0
  8  9  1  0  0  0  0
  9 10  2  0  0  0  0
 10 11  1  0  0  0  0
 11 12  1  0  0  0  0
 12 13  2  0  0  0  0
 12 14  1  0  0  0  0
 14 15  2  0  0  0  0
 15 16  1  0  0  0  0
 16 17  2  0  0  0  0
 17 18  1  0  0  0  0
 18 19  2  0  0  0  0
 14 19  1  0  0  0  0
 10 20  1  0  0  0  0
 20 21  2  0  0  0  0
  7 21  1  0  0  0  0
M  END
> <ID>
CPD_4867

$$$$
CPD_4872
  Mrv1822 09091914012D          

 21 22  0  0  0  0            999 V2000
    1.4289   -4.1250    0.0000 C   0  0  0  0  0  0  0  0  0  0  0  0
    2.1434   -3.7125    0.0000 C   0  0  0  0  0  0  0  0  0  0  0  0
    2.8579   -4.1250    0.0000 O   0  0  0  0  0  0  0  0  0  0  0  0
    3.5724   -3.7125    0.0000 C   0  0  0  0  0  0  0  0  0  0  0  0
    4.2868   -4.1250    0.0000 C   0  0  0  0  0  0  0  0  0  0  0  0
    5.0013   -3.7125    0.0000 O   0  0  0  0  0  0  0  0  0  0  0  0
    5.7158   -4.1250    0.0000 C   0  0  0  0  0  0  0  0  0  0  0  0
    6.4302   -3.7125    0.0000 C   0  0  0  0  0  0  0  0  0  0  0  0
    7.1447   -4.1250    0.0000 C   0  0  0  0  0  0  0  0  0  0  0  0
    7.1447   -4.9500    0.0000 C   0  0  0  0  0  0  0  0  0  0  0  0
    6.4302   -5.3625    0.0000 C   0  0  0  0  0  0  0  0  0  0  0  0
    5.7158   -4.9500    0.0000 C   0  0  0  0  0  0  0  0  0  0  0  0
    7.8592   -5.3625    0.0000 C   0  0  0  0  0  0  0  0  0  0  0  0
    8.6129   -5.0269    0.0000 C   0  0  0  0  0  0  0  0  0  0  0  0
    9.1649   -5.6400    0.0000 N   0  0  0  0  0  0  0  0  0  0  0  0
    8.7524   -6.3545    0.0000 C   0  0  0  0  0  0  0  0  0  0  0  0
    7.9454   -6.1830    0.0000 C   0  0  0  0  0  0  0  0  0  0  0  0
    9.0879   -7.1082    0.0000 C   0  0  0  0  0  0  0  0  0  0  0  0
    8.6030   -7.7756    0.0000 O   0  0  0  0  0  0  0  0  0  0  0  0
    9.9084   -7.1944    0.0000 O   0  0  0  0  0  0  0  0  0  0  0  0
   10.3933   -6.5270    0.0000 C   0  0  0  0  0  0  0  0  0  0  0  0
  1  2  1  0  0  0  0
  2  3  1  0  0  0  0
  3  4  1  0  0  0  0
  4  5  1  0  0  0  0
  5  6  1  0  0  0  0
  6  7  1  0  0  0  0
  7  8  2  0  0  0  0
  8  9  1  0  0  0  0
  9 10  2  0  0  0  0
 10 11  1  0  0  0  0
 11 12  2  0  0  0  0
  7 12  1  0  0  0  0
 10 13  1  0  0  0  0
 13 14  2  0  0  0  0
 14 15  1  0  0  0  0
 15 16  1  0  0  0  0
 16 17  2  0  0  0  0
 13 17  1  0  0  0  0
 16 18  1  0  0  0  0
 18 19  2  0  0  0  0
 18 20  1  0  0  0  0
 20 21  1  0  0  0  0
M  END
> <ID>
CPD_4872

$$$$
CPD_4877
  Mrv1822 09091914012D          

 25 27  0  0  0  0            999 V2000
    0.0000   -1.6500    0.0000 C   0  0  0  0  0  0  0  0  0  0  0  0
    0.0000   -2.4750    0.0000 C   0  0  0  0  0  0  0  0  0  0  0  0
    0.7145   -2.8875    0.0000 O   0  0  0  0  0  0  0  0  0  0  0  0
    0.7145   -3.7125    0.0000 C   0  0  0  0  0  0  0  0  0  0  0  0
    1.4289   -4.1250    0.0000 C   0  0  0  0  0  0  0  0  0  0  0  0
    1.4289   -4.9500    0.0000 C   0  0  0  0  0  0  0  0  0  0  0  0
    0.7145   -5.3625    0.0000 C   0  0  0  0  0  0  0  0  0  0  0  0
    0.0000   -4.9500    0.0000 C   0  0  0  0  0  0  0  0  0  0  0  0
   -0.7145   -5.3625    0.0000 Br  0  0  0  0  0  0  0  0  0  0  0  0
    0.0000   -4.1250    0.0000 C   0  0  0  0  0  0  0  0  0  0  0  0
    2.1434   -3.7125    0.0000 C   0  0  0  0  0  0  0  0  0  0  0  0
    2.1434   -2.8875    0.0000 C   0  0  0  0  0  0  0  0  0  0  0  0
    2.8579   -2.4750    0.0000 N   0  0  0  0  0  0  0  0  0  0  0  0
    3.5724   -2.8875    0.0000 C   0  0  0  0  0  0  0  0  0  0  0  0
    4.2868   -2.4750    0.0000 N   0  0  0  0  0  0  0  0  0  0  0  0
    4.2868   -1.6500    0.0000 C   0  0  0  0  0  0  0  0  0  0  0  0
    5.0013   -1.2375    0.0000 C   0  0  0  0  0  0  0  0  0  0  0  0
    5.7158   -1.6500    0.0000 C   0  0  0  0  0  0  0  0  0  0  0  0
    5.7158   -2.4750    0.0000 C   0  0  0  0  0  0  0  0  0  0  0  0
    5.0013   -2.8875    0.0000 C   0  0  0  0  0  0  0  0  0  0  0  0
    3.5724   -3.7125    0.0000 C   0  0  0  0  0  0  0  0  0  0  0  0
    2.8579   -4.1250    0.0000 C   0  0  0  0  0  0  0  0  0  0  0  0
    4.2868   -4.1250    0.0000 C   0  0  0  0  0  0  0  0  0  0  0  0
    4.2868   -4.9500    0.0000 O   0  0  0  0  0  0  0  0  0  0  0  0
    5.0013   -3.7125    0.0000 O   0  0  0  0  0  0  0  0  0  0  0  0
  1  2  1  0  0  0  0
  2  3  1  0  0  0  0
  3  4  1  0  0  0  0
  4  5  2  0  0  0  0
  5  6  1  0  0  0  0
  6  7  2  0  0  0  0
  7  8  1  0  0  0  0
  8  9  1  0  0  0  0
  8 10  2  0  0  0  0
  4 10  1  0  0  0  0
  5 11  1  0  0  0  0
 11 12  2  0  0  0  0
 12 13  1  0  0  0  0
 13 14  2  0  0  0  0
 14 15  1  0  0  0  0
 15 16  1  0  0  0  0
 16 17  1  0  0  0  0
 17 18  1  0  0  0  0
 18 19  1  0  0  0  0
 19 20  1  0  0  0  0
 15 20  1  0  0  0  0
 14 21  1  0  0  0  0
 21 22  2  0  0  0  0
 11 22  1  0  0  0  0
 21 23  1  0  0  0  0
 23 24  1  0  0  0  0
 23 25  2  0  0  0  0
M  END
> <ID>
CPD_4877

$$$$
CPD_4882
  Mrv1822 09091914012D          

 15 16  0  0  0  0            999 V2000
    1.5356    0.7634    0.0000 C   0  0  0  0  0  0  0  0  0  0  0  0
    0.8212    1.1759    0.0000 C   0  0  0  0  0  0  0  0  0  0  0  0
    0.1067    0.7634    0.0000 O   0  0  0  0  0  0  0  0  0  0  0  0
   -0.6078    1.1759    0.0000 C   0  0  0  0  0  0  0  0  0  0  0  0
   -1.3222    0.7634    0.0000 C   0  0  0  0  0  0  0  0  0  0  0  0
   -2.0367    1.1759    0.0000 C   0  0  0  0  0  0  0  0  0  0  0  0
   -2.0367    2.0009    0.0000 C   0  0  0  0  0  0  0  0  0  0  0  0
   -1.3222    2.4134    0.0000 C   0  0  0  0  0  0  0  0  0  0  0  0
   -1.3222    3.2384    0.0000 Br  0  0  0  0  0  0  0  0  0  0  0  0
   -0.6078    2.0009    0.0000 C   0  0  0  0  0  0  0  0  0  0  0  0
   -1.3222   -0.0616    0.0000 C   0  0  0  0  0  0  0  0  0  0  0  0
   -0.6548   -0.5465    0.0000 C   0  0  0  0  0  0  0  0  0  0  0  0
   -0.9097   -1.3312    0.0000 C   0  0  0  0  0  0  0  0  0  0  0  0
   -1.7347   -1.3312    0.0000 N   0  0  0  0  0  0  0  0  0  0  0  0
   -1.9897   -0.5465    0.0000 C   0  0  0  0  0  0  0  0  0  0  0  0
  1  2  1  0  0  0  0
  2  3  1  0  0  0  0
  3  4  1  0  0  0  0
  4  5  2  0  0  0  0
  5  6  1  0  0  0  0
  6  7  2  0  0  0  0
  7  8  1  0  0  0  0
  8  9  1  0  0  0  0
  8 10  2  0  0  0  0
  4 10  1  0  0  0  0
  5 11  1  0  0  0  0
 11 12  1  0  0  0  0
 12 13  1  0  0  0  0
 13 14  1  0  0  0  0
 14 15  1  0  0  0  0
 11 15  1  0  0  0  0
M  END
> <ID>
CPD_4882

$$$$
CPD_4887
  Mrv1822 09091914012D          

 21 23  0  0  0  0            999 V2000
   -2.1434   -1.2375    0.0000 C   0  0  0  0  0  0  0  0  0  0  0  0
   -1.4289   -1.6500    0.0000 C   0  0  0  0  0  0  0  0  0  0  0  0
   -0.7145   -1.2375    0.0000 O   0  0  0  0  0  0  0  0  0  0  0  0
    0.0000   -1.6500    0.0000 C   0  0  0  0  0  0  0  0  0  0  0  0
    0.7145   -1.2375    0.0000 C   0  0  0  0  0  0  0  0  0  0  0  0
    1.4289   -1.6500    0.0000 C   0  0  0  0  0  0  0  0  0  0  0  0
    1.4289   -2.4750    0.0000 C   0  0  0  0  0  0  0  0  0  0  0  0
    0.7145   -2.8875    0.0000 C   0  0  0  0  0  0  0  0  0  0  0  0
    0.7145   -3.7125    0.0000 Br  0  0  0  0  0  0  0  0  0  0  0  0
    0.0000   -2.4750    0.0000 C   0  0  0  0  0  0  0  0  0  0  0  0
    0.7145   -0.4125    0.0000 C   0  0  0  0  0  0  0  0  0  0  0  0
    0.0000    0.0000    0.0000 C   0  0  0  0  0  0  0  0  0  0  0  0
   -0.7846   -0.2549    0.0000 S   0  0  0  0  0  0  0  0  0  0  0  0
   -1.2695    0.4125    0.0000 C   0  0  0  0  0  0  0  0  0  0  0  0
   -2.0945    0.4125    0.0000 C   0  0  0  0  0  0  0  0  0  0  0  0
   -2.5070   -0.3020    0.0000 O   0  0  0  0  0  0  0  0  0  0  0  0
   -0.7846    1.0799    0.0000 C   0  0  0  0  0  0  0  0  0  0  0  0
    0.0000    0.8250    0.0000 C   0  0  0  0  0  0  0  0  0  0  0  0
    0.7145    1.2375    0.0000 C   0  0  0  0  0  0  0  0  0  0  0  0
    1.4289    0.8250    0.0000 C   0  0  0  0  0  0  0  0  0  0  0  0
    1.4289    0.0000    0.0000 C   0  0  0  0  0  0  0  0  0  0  0  0
  1  2  1  0  0  0  0
  2  3  1  0  0  0  0
  3  4  1  0  0  0  0
  4  5  2  0  0  0  0
  5  6  1  0  0  0  0
  6  7  2  0  0  0  0
  7  8  1  0  0  0  0
  8  9  1  0  0  0  0
  8 10  2  0  0  0  0
  4 10  1  0  0  0  0
  5 11  1  0  0  0  0
 11 12  2  0  0  0  0
 12 13  1  0  0  0  0
 13 14  1  0  0  0  0
 14 15  1  0  0  0  0
 15 16  1  0  0  0  0
 14 17  2  0  0  0  0
 17 18  1  0  0  0  0
 12 18  1  0  0  0  0
 18 19  2  0  0  0  0
 19 20  1  0  0  0  0
 20 21  2  0  0  0  0
 11 21  1  0  0  0  0
M  END
> <ID>
CPD_4887

$$$$
CPD_4892
  Mrv1822 09091914012D          

 29 32  0  0  0  0            999 V2000
    3.2326    4.8365    0.0000 C   0  0  0  0  0  0  0  0  0  0  0  0
    2.8426    4.1095    0.0000 C   0  0  0  0  0  0  0  0  0  0  0  0
    3.2772    3.4082    0.0000 O   0  0  0  0  0  0  0  0  0  0  0  0
    2.8872    2.6812    0.0000 C   0  0  0  0  0  0  0  0  0  0  0  0
    3.3218    1.9800    0.0000 C   0  0  0  0  0  0  0  0  0  0  0  0
    4.1464    2.0057    0.0000 F   0  0  0  0  0  0  0  0  0  0  0  0
    2.9318    1.2530    0.0000 C   0  0  0  0  0  0  0  0  0  0  0  0
    2.1072    1.2272    0.0000 C   0  0  0  0  0  0  0  0  0  0  0  0
    1.6726    1.9284    0.0000 C   0  0  0  0  0  0  0  0  0  0  0  0
    0.8480    1.9027    0.0000 O   0  0  0  0  0  0  0  0  0  0  0  0
    0.4134    2.6039    0.0000 C   0  0  0  0  0  0  0  0  0  0  0  0
    1.1147    3.0385    0.0000 F   0  0  0  0  0  0  0  0  0  0  0  0
   -0.2878    2.1693    0.0000 F   0  0  0  0  0  0  0  0  0  0  0  0
   -0.0212    3.3052    0.0000 F   0  0  0  0  0  0  0  0  0  0  0  0
    2.0626    2.6554    0.0000 C   0  0  0  0  0  0  0  0  0  0  0  0
    3.3664    0.5517    0.0000 C   0  0  0  0  0  0  0  0  0  0  0  0
    4.1910    0.5775    0.0000 N   0  0  0  0  0  0  0  0  0  0  0  0
    4.6256   -0.1238    0.0000 C   0  0  0  0  0  0  0  0  0  0  0  0
    5.4502   -0.0980    0.0000 C   0  0  0  0  0  0  0  0  0  0  0  0
    5.8849   -0.7992    0.0000 C   0  0  0  0  0  0  0  0  0  0  0  0
    5.4949   -1.5262    0.0000 C   0  0  0  0  0  0  0  0  0  0  0  0
    4.6703   -1.5520    0.0000 N   0  0  0  0  0  0  0  0  0  0  0  0
    4.2357   -0.8508    0.0000 C   0  0  0  0  0  0  0  0  0  0  0  0
    3.4111   -0.8765    0.0000 N   0  0  0  0  0  0  0  0  0  0  0  0
    2.8784   -1.5066    0.0000 N   0  0  0  0  0  0  0  0  0  0  0  0
    2.1147   -1.1947    0.0000 C   0  0  0  0  0  0  0  0  0  0  0  0
    1.4134   -1.6293    0.0000 C   0  0  0  0  0  0  0  0  0  0  0  0
    2.1752   -0.3719    0.0000 C   0  0  0  0  0  0  0  0  0  0  0  0
    2.9765   -0.1753    0.0000 C   0  0  0  0  0  0  0  0  0  0  0  0
  1  2  1  0  0  0  0
  2  3  1  0  0  0  0
  3  4  1  0  0  0  0
  4  5  2  0  0  0  0
  5  6  1  0  0  0  0
  5  7  1  0  0  0  0
  7  8  2  0  0  0  0
  8  9  1  0  0  0  0
  9 10  1  0  0  0  0
 10 11  1  0  0  0  0
 11 12  1  0  0  0  0
 11 13  1  0  0  0  0
 11 14  1  0  0  0  0
  9 15  2  0  0  0  0
  4 15  1  0  0  0  0
  7 16  1  0  0  0  0
 16 17  2  0  0  0  0
 17 18  1  0  0  0  0
 18 19  2  0  0  0  0
 19 20  1  0  0  0  0
 20 21  2  0  0  0  0
 21 22  1  0  0  0  0
 22 23  2  0  0  0  0
 18 23  1  0  0  0  0
 23 24  1  0  0  0  0
 24 25  1  0  0  0  0
 25 26  2  0  0  0  0
 26 27  1  0  0  0  0
 26 28  1  0  0  0  0
 28 29  2  0  0  0  0
 16 29  1  0  0  0  0
 24 29  1  0  0  0  0
M  END
> <ID>
CPD_4892

$$$$
CPD_4897
  Mrv1822 09091914012D          

 28 30  0  0  0  0            999 V2000
   -5.0013   -1.2375    0.0000 C   0  0  0  0  0  0  0  0  0  0  0  0
   -4.2868   -1.6500    0.0000 C   0  0  0  0  0  0  0  0  0  0  0  0
   -3.5724   -1.2375    0.0000 O   0  0  0  0  0  0  0  0  0  0  0  0
   -2.8579   -1.6500    0.0000 C   0  0  0  0  0  0  0  0  0  0  0  0
   -2.1434   -1.2375    0.0000 C   0  0  0  0  0  0  0  0  0  0  0  0
   -2.1434   -0.4125    0.0000 F   0  0  0  0  0  0  0  0  0  0  0  0
   -1.4289   -1.6500    0.0000 C   0  0  0  0  0  0  0  0  0  0  0  0
   -1.4289   -2.4750    0.0000 C   0  0  0  0  0  0  0  0  0  0  0  0
   -2.1434   -2.8875    0.0000 C   0  0  0  0  0  0  0  0  0  0  0  0
   -2.1434   -3.7125    0.0000 O   0  0  0  0  0  0  0  0  0  0  0  0
   -2.8579   -4.1250    0.0000 C   0  0  0  0  0  0  0  0  0  0  0  0
   -3.2704   -3.4105    0.0000 F   0  0  0  0  0  0  0  0  0  0  0  0
   -2.4454   -4.8395    0.0000 F   0  0  0  0  0  0  0  0  0  0  0  0
   -3.5724   -4.5375    0.0000 F   0  0  0  0  0  0  0  0  0  0  0  0
   -2.8579   -2.4750    0.0000 C   0  0  0  0  0  0  0  0  0  0  0  0
   -0.7145   -1.2375    0.0000 C   0  0  0  0  0  0  0  0  0  0  0  0
    0.0000   -1.6500    0.0000 C   0  0  0  0  0  0  0  0  0  0  0  0
    0.7145   -1.2375    0.0000 C   0  0  0  0  0  0  0  0  0  0  0  0
    0.7145   -0.4125    0.0000 C   0  0  0  0  0  0  0  0  0  0  0  0
    1.4289   -0.0000    0.0000 N   0  0  0  0  0  0  0  0  0  0  0  0
    2.1434   -0.4125    0.0000 C   0  0  0  0  0  0  0  0  0  0  0  0
    2.8579   -0.0000    0.0000 O   0  0  0  0  0  0  0  0  0  0  0  0
    2.1434   -1.2375    0.0000 C   0  0  0  0  0  0  0  0  0  0  0  0
    1.4289   -1.6500    0.0000 C   0  0  0  0  0  0  0  0  0  0  0  0
    1.8163   -2.3784    0.0000 C   0  0  0  0  0  0  0  0  0  0  0  0
    1.0416   -2.3784    0.0000 C   0  0  0  0  0  0  0  0  0  0  0  0
    0.0000   -0.0000    0.0000 C   0  0  0  0  0  0  0  0  0  0  0  0
   -0.7145   -0.4125    0.0000 C   0  0  0  0  0  0  0  0  0  0  0  0
  1  2  1  0  0  0  0
  2  3  1  0  0  0  0
  3  4  1  0  0  0  0
  4  5  2  0  0  0  0
  5  6  1  0  0  0  0
  5  7  1  0  0  0  0
  7  8  2  0  0  0  0
  8  9  1  0  0  0  0
  9 10  1  0  0  0  0
 10 11  1  0  0  0  0
 11 12  1  0  0  0  0
 11 13  1  0  0  0  0
 11 14  1  0  0  0  0
  9 15  2  0  0  0  0
  4 15  1  0  0  0  0
  7 16  1  0  0  0  0
 16 17  2  0  0  0  0
 17 18  1  0  0  0  0
 18 19  2  0  0  0  0
 19 20  1  0  0  0  0
 20 21  1  0  0  0  0
 21 22  2  0  0  0  0
 21 23  1  0  0  0  0
 23 24  1  0  0  0  0
 18 24  1  0  0  0  0
 24 25  1  0  0  0  0
 24 26  1  0  0  0  0
 19 27  1  0  0  0  0
 27 28  2  0  0  0  0
 16 28  1  0  0  0  0
M  END
> <ID>
CPD_4897

$$$$
CPD_4902
  Mrv1822 09091914012D          

 24 25  0  0  0  0            999 V2000
    0.0000    0.8250    0.0000 C   0  0  0  0  0  0  0  0  0  0  0  0
    0.0000    0.0000    0.0000 C   0  0  0  0  0  0  0  0  0  0  0  0
    0.7145   -0.4125    0.0000 O   0  0  0  0  0  0  0  0  0  0  0  0
    0.7145   -1.2375    0.0000 C   0  0  0  0  0  0  0  0  0  0  0  0
    1.4289   -1.6500    0.0000 C   0  0  0  0  0  0  0  0  0  0  0  0
    2.1434   -1.2375    0.0000 F   0  0  0  0  0  0  0  0  0  0  0  0
    1.4289   -2.4750    0.0000 C   0  0  0  0  0  0  0  0  0  0  0  0
    0.7145   -2.8875    0.0000 C   0  0  0  0  0  0  0  0  0  0  0  0
    0.0000   -2.4750    0.0000 C   0  0  0  0  0  0  0  0  0  0  0  0
   -0.7145   -2.8875    0.0000 O   0  0  0  0  0  0  0  0  0  0  0  0
   -1.4289   -2.4750    0.0000 C   0  0  0  0  0  0  0  0  0  0  0  0
   -1.0164   -1.7605    0.0000 F   0  0  0  0  0  0  0  0  0  0  0  0
   -1.8414   -3.1895    0.0000 F   0  0  0  0  0  0  0  0  0  0  0  0
   -2.1434   -2.0625    0.0000 F   0  0  0  0  0  0  0  0  0  0  0  0
    0.0000   -1.6500    0.0000 C   0  0  0  0  0  0  0  0  0  0  0  0
    2.1434   -2.8875    0.0000 C   0  0  0  0  0  0  0  0  0  0  0  0
    2.8579   -2.4750    0.0000 C   0  0  0  0  0  0  0  0  0  0  0  0
    2.8579   -1.6500    0.0000 O   0  0  0  0  0  0  0  0  0  0  0  0
    3.5724   -2.8875    0.0000 C   0  0  0  0  0  0  0  0  0  0  0  0
    4.2868   -2.4750    0.0000 C   0  0  0  0  0  0  0  0  0  0  0  0
    3.5724   -3.7125    0.0000 C   0  0  0  0  0  0  0  0  0  0  0  0
    2.8579   -4.1250    0.0000 C   0  0  0  0  0  0  0  0  0  0  0  0
    2.8579   -4.9500    0.0000 C   0  0  0  0  0  0  0  0  0  0  0  0
    2.1434   -3.7125    0.0000 C   0  0  0  0  0  0  0  0  0  0  0  0
  1  2  1  0  0  0  0
  2  3  1  0  0  0  0
  3  4  1  0  0  0  0
  4  5  2  0  0  0  0
  5  6  1  0  0  0  0
  5  7  1  0  0  0  0
  7  8  2  0  0  0  0
  8  9  1  0  0  0  0
  9 10  1  0  0  0  0
 10 11  1  0  0  0  0
 11 12  1  0  0  0  0
 11 13  1  0  0  0  0
 11 14  1  0  0  0  0
  9 15  2  0  0  0  0
  4 15  1  0  0  0  0
  7 16  1  0  0  0  0
 16 17  2  0  0  0  0
 17 18  1  0  0  0  0
 17 19  1  0  0  0  0
 19 20  1  0  0  0  0
 19 21  2  0  0  0  0
 21 22  1  0  0  0  0
 22 23  1  0  0  0  0
 22 24  2  0  0  0  0
 16 24  1  0  0  0  0
M  END
> <ID>
CPD_4902

$$$$
CPD_4907
  Mrv1822 09091914012D          

 26 28  0  0  0  0            999 V2000
   -2.2673    1.8818    0.0000 C   0  0  0  0  0  0  0  0  0  0  0  0
   -1.4604    1.7103    0.0000 C   0  0  0  0  0  0  0  0  0  0  0  0
   -1.2054    0.9256    0.0000 C   0  0  0  0  0  0  0  0  0  0  0  0
   -0.3984    0.7541    0.0000 C   0  0  0  0  0  0  0  0  0  0  0  0
   -0.1435   -0.0305    0.0000 N   0  0  0  0  0  0  0  0  0  0  0  0
   -0.6284   -0.6979    0.0000 C   0  0  0  0  0  0  0  0  0  0  0  0
   -0.1435   -1.3654    0.0000 N   0  0  0  0  0  0  0  0  0  0  0  0
    0.6411   -1.1104    0.0000 C   0  0  0  0  0  0  0  0  0  0  0  0
    0.6411   -0.2854    0.0000 C   0  0  0  0  0  0  0  0  0  0  0  0
    1.3556    0.1271    0.0000 C   0  0  0  0  0  0  0  0  0  0  0  0
    2.0701   -0.2854    0.0000 C   0  0  0  0  0  0  0  0  0  0  0  0
    2.7845    0.1271    0.0000 F   0  0  0  0  0  0  0  0  0  0  0  0
    2.0701   -1.1104    0.0000 C   0  0  0  0  0  0  0  0  0  0  0  0
    1.3556   -1.5229    0.0000 C   0  0  0  0  0  0  0  0  0  0  0  0
    2.7845   -1.5229    0.0000 C   0  0  0  0  0  0  0  0  0  0  0  0
    3.4990   -1.1104    0.0000 C   0  0  0  0  0  0  0  0  0  0  0  0
    3.4990   -0.2854    0.0000 O   0  0  0  0  0  0  0  0  0  0  0  0
    4.2135    0.1271    0.0000 C   0  0  0  0  0  0  0  0  0  0  0  0
    4.2135   -1.5229    0.0000 N   0  0  0  0  0  0  0  0  0  0  0  0
    4.2135   -2.3479    0.0000 C   0  0  0  0  0  0  0  0  0  0  0  0
    4.9279   -2.7604    0.0000 O   0  0  0  0  0  0  0  0  0  0  0  0
    5.6424   -2.3479    0.0000 C   0  0  0  0  0  0  0  0  0  0  0  0
    3.4990   -2.7604    0.0000 C   0  0  0  0  0  0  0  0  0  0  0  0
    3.4990   -3.5854    0.0000 O   0  0  0  0  0  0  0  0  0  0  0  0
    2.7845   -3.9979    0.0000 C   0  0  0  0  0  0  0  0  0  0  0  0
    2.7845   -2.3479    0.0000 C   0  0  0  0  0  0  0  0  0  0  0  0
  1  2  1  0  0  0  0
  2  3  1  0  0  0  0
  3  4  1  0  0  0  0
  4  5  1  0  0  0  0
  5  6  1  0  0  0  0
  6  7  2  0  0  0  0
  7  8  1  0  0  0  0
  8  9  2  0  0  0  0
  5  9  1  0  0  0  0
  9 10  1  0  0  0  0
 10 11  2  0  0  0  0
 11 12  1  0  0  0  0
 11 13  1  0  0  0  0
 13 14  2  0  0  0  0
  8 14  1  0  0  0  0
 13 15  1  0  0  0  0
 15 16  2  0  0  0  0
 16 17  1  0  0  0  0
 17 18  1  0  0  0  0
 16 19  1  0  0  0  0
 19 20  2  0  0  0  0
 20 21  1  0  0  0  0
 21 22  1  0  0  0  0
 20 23  1  0  0  0  0
 23 24  1  0  0  0  0
 24 25  1  0  0  0  0
 23 26  2  0  0  0  0
 15 26  1  0  0  0  0
M  END
> <ID>
CPD_4907

$$$$
CPD_4912
  Mrv1822 09091914012D          

 23 24  0  0  0  0            999 V2000
    0.0000    0.0000    0.0000 C   0  0  0  0  0  0  0  0  0  0  0  0
    0.7145   -0.4125    0.0000 O   0  0  0  0  0  0  0  0  0  0  0  0
    0.7145   -1.2375    0.0000 C   0  0  0  0  0  0  0  0  0  0  0  0
    1.4289   -1.6500    0.0000 C   0  0  0  0  0  0  0  0  0  0  0  0
    1.4289   -2.4750    0.0000 C   0  0  0  0  0  0  0  0  0  0  0  0
    0.7145   -2.8875    0.0000 C   0  0  0  0  0  0  0  0  0  0  0  0
    0.7145   -3.7125    0.0000 O   0  0  0  0  0  0  0  0  0  0  0  0
   -0.0000   -4.1250    0.0000 C   0  0  0  0  0  0  0  0  0  0  0  0
    0.0000   -2.4750    0.0000 N   0  0  0  0  0  0  0  0  0  0  0  0
    0.0000   -1.6500    0.0000 C   0  0  0  0  0  0  0  0  0  0  0  0
   -0.7145   -1.2375    0.0000 O   0  0  0  0  0  0  0  0  0  0  0  0
   -0.7145   -0.4125    0.0000 C   0  0  0  0  0  0  0  0  0  0  0  0
    2.1434   -2.8875    0.0000 C   0  0  0  0  0  0  0  0  0  0  0  0
    2.8579   -2.4750    0.0000 C   0  0  0  0  0  0  0  0  0  0  0  0
    3.5724   -2.8875    0.0000 C   0  0  0  0  0  0  0  0  0  0  0  0
    3.5724   -3.7125    0.0000 C   0  0  0  0  0  0  0  0  0  0  0  0
    4.2868   -4.1250    0.0000 Br  0  0  0  0  0  0  0  0  0  0  0  0
    2.8579   -4.1250    0.0000 C   0  0  0  0  0  0  0  0  0  0  0  0
    2.8579   -4.9500    0.0000 C   0  0  0  0  0  0  0  0  0  0  0  0
    2.1434   -5.3625    0.0000 C   0  0  0  0  0  0  0  0  0  0  0  0
    2.1434   -6.1875    0.0000 O   0  0  0  0  0  0  0  0  0  0  0  0
    1.4289   -4.9500    0.0000 O   0  0  0  0  0  0  0  0  0  0  0  0
    2.1434   -3.7125    0.0000 C   0  0  0  0  0  0  0  0  0  0  0  0
  1  2  1  0  0  0  0
  2  3  1  0  0  0  0
  3  4  2  0  0  0  0
  4  5  1  0  0  0  0
  5  6  2  0  0  0  0
  6  7  1  0  0  0  0
  7  8  1  0  0  0  0
  6  9  1  0  0  0  0
  9 10  2  0  0  0  0
  3 10  1  0  0  0  0
 10 11  1  0  0  0  0
 11 12  1  0  0  0  0
  5 13  1  0  0  0  0
 13 14  2  0  0  0  0
 14 15  1  0  0  0  0
 15 16  2  0  0  0  0
 16 17  1  0  0  0  0
 16 18  1  0  0  0  0
 18 19  1  0  0  0  0
 19 20  1  0  0  0  0
 20 21  1  0  0  0  0
 20 22  2  0  0  0  0
 18 23  2  0  0  0  0
 13 23  1  0  0  0  0
M  END
> <ID>
CPD_4912

$$$$
CPD_4917
  Mrv1822 09091914012D          

 19 20  0  0  0  0            999 V2000
   -2.8579    7.1786    0.0000 C   0  0  0  0  0  0  0  0  0  0  0  0
   -2.1434    6.7661    0.0000 O   0  0  0  0  0  0  0  0  0  0  0  0
   -2.1434    5.9411    0.0000 C   0  0  0  0  0  0  0  0  0  0  0  0
   -1.4289    5.5286    0.0000 C   0  0  0  0  0  0  0  0  0  0  0  0
   -1.4289    4.7036    0.0000 C   0  0  0  0  0  0  0  0  0  0  0  0
   -0.7145    4.2911    0.0000 C   0  0  0  0  0  0  0  0  0  0  0  0
   -0.7145    3.4661    0.0000 C   0  0  0  0  0  0  0  0  0  0  0  0
   -0.0470    2.9812    0.0000 C   0  0  0  0  0  0  0  0  0  0  0  0
   -0.3020    2.1965    0.0000 C   0  0  0  0  0  0  0  0  0  0  0  0
   -1.1270    2.1965    0.0000 C   0  0  0  0  0  0  0  0  0  0  0  0
   -1.6119    1.5291    0.0000 O   0  0  0  0  0  0  0  0  0  0  0  0
   -1.3819    2.9812    0.0000 O   0  0  0  0  0  0  0  0  0  0  0  0
   -2.1434    4.2911    0.0000 C   0  0  0  0  0  0  0  0  0  0  0  0
   -2.1434    3.4661    0.0000 O   0  0  0  0  0  0  0  0  0  0  0  0
   -2.8579    3.0536    0.0000 C   0  0  0  0  0  0  0  0  0  0  0  0
   -2.8579    4.7036    0.0000 N   0  0  0  0  0  0  0  0  0  0  0  0
   -2.8579    5.5286    0.0000 C   0  0  0  0  0  0  0  0  0  0  0  0
   -3.5724    5.9411    0.0000 O   0  0  0  0  0  0  0  0  0  0  0  0
   -4.2868    5.5286    0.0000 C   0  0  0  0  0  0  0  0  0  0  0  0
  1  2  1  0  0  0  0
  2  3  1  0  0  0  0
  3  4  2  0  0  0  0
  4  5  1  0  0  0  0
  5  6  1  0  0  0  0
  6  7  1  0  0  0  0
  7  8  1  0  0  0  0
  8  9  1  0  0  0  0
  9 10  1  0  0  0  0
 10 11  2  0  0  0  0
 10 12  1  0  0  0  0
  7 12  1  0  0  0  0
  5 13  2  0  0  0  0
 13 14  1  0  0  0  0
 14 15  1  0  0  0  0
 13 16  1  0  0  0  0
 16 17  2  0  0  0  0
  3 17  1  0  0  0  0
 17 18  1  0  0  0  0
 18 19  1  0  0  0  0
M  END
> <ID>
CPD_4917

$$$$
CPD_4922
  Mrv1822 09091914012D          

 34 37  0  0  0  0            999 V2000
    2.3282   -0.3103    0.0000 C   0  0  0  0  0  0  0  0  0  0  0  0
    1.5212   -0.4819    0.0000 O   0  0  0  0  0  0  0  0  0  0  0  0
    1.2663   -1.2665    0.0000 C   0  0  0  0  0  0  0  0  0  0  0  0
    0.4593   -1.4380    0.0000 C   0  0  0  0  0  0  0  0  0  0  0  0
    0.2044   -2.2226    0.0000 C   0  0  0  0  0  0  0  0  0  0  0  0
    0.7564   -2.8357    0.0000 C   0  0  0  0  0  0  0  0  0  0  0  0
    1.5634   -2.6642    0.0000 C   0  0  0  0  0  0  0  0  0  0  0  0
    1.8183   -1.8796    0.0000 C   0  0  0  0  0  0  0  0  0  0  0  0
    2.1154   -3.2773    0.0000 C   0  0  0  0  0  0  0  0  0  0  0  0
    2.6674   -2.6642    0.0000 C   0  0  0  0  0  0  0  0  0  0  0  0
    3.4744   -2.8357    0.0000 C   0  0  0  0  0  0  0  0  0  0  0  0
    4.0264   -2.2226    0.0000 C   0  0  0  0  0  0  0  0  0  0  0  0
    4.8334   -2.3942    0.0000 C   0  0  0  0  0  0  0  0  0  0  0  0
    5.0883   -3.1788    0.0000 C   0  0  0  0  0  0  0  0  0  0  0  0
    4.5363   -3.7919    0.0000 C   0  0  0  0  0  0  0  0  0  0  0  0
    3.7293   -3.6204    0.0000 C   0  0  0  0  0  0  0  0  0  0  0  0
    5.8953   -3.3503    0.0000 C   0  0  0  0  0  0  0  0  0  0  0  0
    6.4473   -2.7372    0.0000 C   0  0  0  0  0  0  0  0  0  0  0  0
    6.1924   -1.9526    0.0000 O   0  0  0  0  0  0  0  0  0  0  0  0
    6.7444   -1.3395    0.0000 C   0  0  0  0  0  0  0  0  0  0  0  0
    7.2543   -2.9088    0.0000 N   0  0  0  0  0  0  0  0  0  0  0  0
    7.5093   -3.6934    0.0000 C   0  0  0  0  0  0  0  0  0  0  0  0
    8.3162   -3.8649    0.0000 O   0  0  0  0  0  0  0  0  0  0  0  0
    8.8683   -3.2518    0.0000 C   0  0  0  0  0  0  0  0  0  0  0  0
    6.9572   -4.3065    0.0000 C   0  0  0  0  0  0  0  0  0  0  0  0
    7.2122   -5.0911    0.0000 O   0  0  0  0  0  0  0  0  0  0  0  0
    6.6601   -5.7042    0.0000 C   0  0  0  0  0  0  0  0  0  0  0  0
    6.1503   -4.1349    0.0000 C   0  0  0  0  0  0  0  0  0  0  0  0
    1.4480   -3.7622    0.0000 N   0  0  0  0  0  0  0  0  0  0  0  0
    1.7029   -4.5468    0.0000 C   0  0  0  0  0  0  0  0  0  0  0  0
    1.2180   -5.2143    0.0000 N   0  0  0  0  0  0  0  0  0  0  0  0
    2.5279   -4.5468    0.0000 N   0  0  0  0  0  0  0  0  0  0  0  0
    2.7828   -3.7622    0.0000 C   0  0  0  0  0  0  0  0  0  0  0  0
    3.5675   -4.0172    0.0000 O   0  0  0  0  0  0  0  0  0  0  0  0
  1  2  1  0  0  0  0
  2  3  1  0  0  0  0
  3  4  2  0  0  0  0
  4  5  1  0  0  0  0
  5  6  2  0  0  0  0
  6  7  1  0  0  0  0
  7  8  2  0  0  0  0
  3  8  1  0  0  0  0
  7  9  1  0  0  0  0
  9 10  1  0  0  0  0
 10 11  1  0  0  0  0
 11 12  2  0  0  0  0
 12 13  1  0  0  0  0
 13 14  2  0  0  0  0
 14 15  1  0  0  0  0
 15 16  2  0  0  0  0
 11 16  1  0  0  0  0
 14 17  1  0  0  0  0
 17 18  2  0  0  0  0
 18 19  1  0  0  0  0
 19 20  1  0  0  0  0
 18 21  1  0  0  0  0
 21 22  2  0  0  0  0
 22 23  1  0  0  0  0
 23 24  1  0  0  0  0
 22 25  1  0  0  0  0
 25 26  1  0  0  0  0
 26 27  1  0  0  0  0
 25 28  2  0  0  0  0
 17 28  1  0  0  0  0
  9 29  1  0  0  0  0
 29 30  1  0  0  0  0
 30 31  1  0  0  0  0
 30 32  2  0  0  0  0
 32 33  1  0  0  0  0
  9 33  1  0  0  0  0
 33 34  2  0  0  0  0
M  END
> <ID>
CPD_4922

$$$$
CPD_4927
  Mrv1822 09091914012D          

 23 25  0  0  0  0            999 V2000
    2.1434   -2.8875    0.0000 C   0  0  0  0  0  0  0  0  0  0  0  0
    2.1434   -3.7125    0.0000 N   0  0  0  0  0  0  0  0  0  0  0  0
    2.8579   -4.1250    0.0000 N   0  0  0  0  0  0  0  0  0  0  0  0
    2.8579   -4.9500    0.0000 C   0  0  0  0  0  0  0  0  0  0  0  0
    2.1434   -5.3625    0.0000 C   0  0  0  0  0  0  0  0  0  0  0  0
    1.4289   -4.9500    0.0000 C   0  0  0  0  0  0  0  0  0  0  0  0
    0.7145   -5.3625    0.0000 Br  0  0  0  0  0  0  0  0  0  0  0  0
    1.4289   -4.1250    0.0000 C   0  0  0  0  0  0  0  0  0  0  0  0
    0.7145   -3.7125    0.0000 O   0  0  0  0  0  0  0  0  0  0  0  0
    3.5724   -5.3625    0.0000 C   0  0  0  0  0  0  0  0  0  0  0  0
    4.2868   -4.9500    0.0000 C   0  0  0  0  0  0  0  0  0  0  0  0
    4.2868   -4.1250    0.0000 Cl  0  0  0  0  0  0  0  0  0  0  0  0
    5.0013   -5.3625    0.0000 C   0  0  0  0  0  0  0  0  0  0  0  0
    5.7158   -4.9500    0.0000 O   0  0  0  0  0  0  0  0  0  0  0  0
    6.4302   -5.3625    0.0000 C   0  0  0  0  0  0  0  0  0  0  0  0
    7.1447   -4.9500    0.0000 C   0  0  0  0  0  0  0  0  0  0  0  0
    7.8592   -5.3625    0.0000 C   0  0  0  0  0  0  0  0  0  0  0  0
    7.8592   -6.1875    0.0000 C   0  0  0  0  0  0  0  0  0  0  0  0
    7.1447   -6.6000    0.0000 C   0  0  0  0  0  0  0  0  0  0  0  0
    6.4302   -6.1875    0.0000 C   0  0  0  0  0  0  0  0  0  0  0  0
    5.0013   -6.1875    0.0000 N   0  0  0  0  0  0  0  0  0  0  0  0
    4.2868   -6.6000    0.0000 C   0  0  0  0  0  0  0  0  0  0  0  0
    3.5724   -6.1875    0.0000 C   0  0  0  0  0  0  0  0  0  0  0  0
  1  2  1  0  0  0  0
  2  3  1  0  0  0  0
  3  4  2  0  0  0  0
  4  5  1  0  0  0  0
  5  6  2  0  0  0  0
  6  7  1  0  0  0  0
  6  8  1  0  0  0  0
  2  8  1  0  0  0  0
  8  9  2  0  0  0  0
  4 10  1  0  0  0  0
 10 11  2  0  0  0  0
 11 12  1  0  0  0  0
 11 13  1  0  0  0  0
 13 14  1  0  0  0  0
 14 15  1  0  0  0  0
 15 16  1  0  0  0  0
 16 17  1  0  0  0  0
 17 18  1  0  0  0  0
 18 19  1  0  0  0  0
 19 20  1  0  0  0  0
 15 20  1  0  0  0  0
 13 21  2  0  0  0  0
 21 22  1  0  0  0  0
 22 23  2  0  0  0  0
 10 23  1  0  0  0  0
M  END
> <ID>
CPD_4927

$$$$
CPD_4932
  Mrv1822 09091914012D          

 26 28  0  0  0  0            999 V2000
    0.7145   -3.7125    0.0000 C   0  0  0  0  0  0  0  0  0  0  0  0
    0.0000   -4.1250    0.0000 C   0  0  0  0  0  0  0  0  0  0  0  0
    0.0000   -4.9500    0.0000 C   0  0  0  0  0  0  0  0  0  0  0  0
   -0.7145   -3.7125    0.0000 O   0  0  0  0  0  0  0  0  0  0  0  0
   -0.7145   -2.8875    0.0000 C   0  0  0  0  0  0  0  0  0  0  0  0
   -1.4289   -2.4750    0.0000 C   0  0  0  0  0  0  0  0  0  0  0  0
   -1.4289   -1.6500    0.0000 C   0  0  0  0  0  0  0  0  0  0  0  0
   -0.7145   -1.2375    0.0000 C   0  0  0  0  0  0  0  0  0  0  0  0
    0.0000   -1.6500    0.0000 C   0  0  0  0  0  0  0  0  0  0  0  0
    0.0000   -2.4750    0.0000 C   0  0  0  0  0  0  0  0  0  0  0  0
    0.7145   -1.2375    0.0000 C   0  0  0  0  0  0  0  0  0  0  0  0
    0.7145   -0.4125    0.0000 C   0  0  0  0  0  0  0  0  0  0  0  0
    1.4289    0.0000    0.0000 C   0  0  0  0  0  0  0  0  0  0  0  0
    1.4289    0.8250    0.0000 Br  0  0  0  0  0  0  0  0  0  0  0  0
    2.1434   -0.4125    0.0000 C   0  0  0  0  0  0  0  0  0  0  0  0
    2.8579    0.0000    0.0000 O   0  0  0  0  0  0  0  0  0  0  0  0
    3.5724   -0.4125    0.0000 C   0  0  0  0  0  0  0  0  0  0  0  0
    3.5724   -1.2375    0.0000 C   0  0  0  0  0  0  0  0  0  0  0  0
    4.2868   -1.6500    0.0000 O   0  0  0  0  0  0  0  0  0  0  0  0
    2.8579   -1.6500    0.0000 N   0  0  0  0  0  0  0  0  0  0  0  0
    2.1434   -1.2375    0.0000 C   0  0  0  0  0  0  0  0  0  0  0  0
    1.4289   -1.6500    0.0000 N   0  0  0  0  0  0  0  0  0  0  0  0
   -2.1434   -2.8875    0.0000 C   0  0  0  0  0  0  0  0  0  0  0  0
   -2.8579   -3.3000    0.0000 F   0  0  0  0  0  0  0  0  0  0  0  0
   -2.5559   -2.1730    0.0000 F   0  0  0  0  0  0  0  0  0  0  0  0
   -1.7309   -3.6020    0.0000 F   0  0  0  0  0  0  0  0  0  0  0  0
  1  2  1  0  0  0  0
  2  3  1  0  0  0  0
  2  4  1  0  0  0  0
  4  5  1  0  0  0  0
  5  6  2  0  0  0  0
  6  7  1  0  0  0  0
  7  8  2  0  0  0  0
  8  9  1  0  0  0  0
  9 10  2  0  0  0  0
  5 10  1  0  0  0  0
  9 11  1  0  0  0  0
 11 12  2  0  0  0  0
 12 13  1  0  0  0  0
 13 14  1  0  0  0  0
 13 15  2  0  0  0  0
 15 16  1  0  0  0  0
 16 17  1  0  0  0  0
 17 18  1  0  0  0  0
 18 19  2  0  0  0  0
 18 20  1  0  0  0  0
 20 21  1  0  0  0  0
 15 21  1  0  0  0  0
 21 22  2  0  0  0  0
 11 22  1  0  0  0  0
  6 23  1  0  0  0  0
 23 24  1  0  0  0  0
 23 25  1  0  0  0  0
 23 26  1  0  0  0  0
M  END
> <ID>
CPD_4932

$$$$
CPD_4937
  Mrv1822 09091914012D          

 26 28  0  0  0  0            999 V2000
    3.3523    4.4104    0.0000 C   0  0  0  0  0  0  0  0  0  0  0  0
    4.0668    4.8229    0.0000 C   0  0  0  0  0  0  0  0  0  0  0  0
    4.0668    5.6479    0.0000 C   0  0  0  0  0  0  0  0  0  0  0  0
    4.7812    4.4104    0.0000 O   0  0  0  0  0  0  0  0  0  0  0  0
    4.7812    3.5854    0.0000 C   0  0  0  0  0  0  0  0  0  0  0  0
    5.4957    3.1729    0.0000 C   0  0  0  0  0  0  0  0  0  0  0  0
    5.4957    2.3479    0.0000 C   0  0  0  0  0  0  0  0  0  0  0  0
    4.7812    1.9354    0.0000 C   0  0  0  0  0  0  0  0  0  0  0  0
    4.0668    2.3479    0.0000 C   0  0  0  0  0  0  0  0  0  0  0  0
    4.0668    3.1729    0.0000 C   0  0  0  0  0  0  0  0  0  0  0  0
    3.3523    1.9354    0.0000 C   0  0  0  0  0  0  0  0  0  0  0  0
    3.3523    1.1104    0.0000 C   0  0  0  0  0  0  0  0  0  0  0  0
    2.6378    0.6979    0.0000 C   0  0  0  0  0  0  0  0  0  0  0  0
    1.9233    1.1104    0.0000 C   0  0  0  0  0  0  0  0  0  0  0  0
    1.1387    0.8555    0.0000 C   0  0  0  0  0  0  0  0  0  0  0  0
    0.6538    1.5229    0.0000 N   0  0  0  0  0  0  0  0  0  0  0  0
    1.1387    2.1904    0.0000 N   0  0  0  0  0  0  0  0  0  0  0  0
    0.8838    2.9750    0.0000 C   0  0  0  0  0  0  0  0  0  0  0  0
    0.0768    3.1465    0.0000 C   0  0  0  0  0  0  0  0  0  0  0  0
    1.4358    3.5881    0.0000 O   0  0  0  0  0  0  0  0  0  0  0  0
    1.9233    1.9354    0.0000 C   0  0  0  0  0  0  0  0  0  0  0  0
    2.6378    2.3479    0.0000 C   0  0  0  0  0  0  0  0  0  0  0  0
    6.2102    3.5854    0.0000 C   0  0  0  0  0  0  0  0  0  0  0  0
    6.9246    3.9979    0.0000 F   0  0  0  0  0  0  0  0  0  0  0  0
    6.6227    2.8710    0.0000 F   0  0  0  0  0  0  0  0  0  0  0  0
    5.7977    4.2999    0.0000 F   0  0  0  0  0  0  0  0  0  0  0  0
  1  2  1  0  0  0  0
  2  3  1  0  0  0  0
  2  4  1  0  0  0  0
  4  5  1  0  0  0  0
  5  6  2  0  0  0  0
  6  7  1  0  0  0  0
  7  8  2  0  0  0  0
  8  9  1  0  0  0  0
  9 10  2  0  0  0  0
  5 10  1  0  0  0  0
  9 11  1  0  0  0  0
 11 12  2  0  0  0  0
 12 13  1  0  0  0  0
 13 14  2  0  0  0  0
 14 15  1  0  0  0  0
 15 16  2  0  0  0  0
 16 17  1  0  0  0  0
 17 18  1  0  0  0  0
 18 19  1  0  0  0  0
 18 20  2  0  0  0  0
 17 21  1  0  0  0  0
 14 21  1  0  0  0  0
 21 22  2  0  0  0  0
 11 22  1  0  0  0  0
  6 23  1  0  0  0  0
 23 24  1  0  0  0  0
 23 25  1  0  0  0  0
 23 26  1  0  0  0  0
M  END
> <ID>
CPD_4937

$$$$
CPD_4942
  Mrv1822 09091914012D          

 23 24  0  0  0  0            999 V2000
    3.0323    0.6139    0.0000 C   0  0  0  0  0  0  0  0  0  0  0  0
    3.5724    1.2375    0.0000 C   0  0  0  0  0  0  0  0  0  0  0  0
    4.3825    1.0816    0.0000 C   0  0  0  0  0  0  0  0  0  0  0  0
    4.6525    0.3020    0.0000 C   0  0  0  0  0  0  0  0  0  0  0  0
    4.9226    1.7052    0.0000 C   0  0  0  0  0  0  0  0  0  0  0  0
    4.6525    2.4848    0.0000 N   0  0  0  0  0  0  0  0  0  0  0  0
    5.7327    1.5493    0.0000 C   0  0  0  0  0  0  0  0  0  0  0  0
    6.2728    2.1730    0.0000 C   0  0  0  0  0  0  0  0  0  0  0  0
    7.0829    2.0171    0.0000 N   0  0  0  0  0  0  0  0  0  0  0  0
    7.6230    2.6407    0.0000 C   0  0  0  0  0  0  0  0  0  0  0  0
    8.4332    2.4848    0.0000 C   0  0  0  0  0  0  0  0  0  0  0  0
    8.9732    3.1084    0.0000 C   0  0  0  0  0  0  0  0  0  0  0  0
    9.7834    2.9525    0.0000 C   0  0  0  0  0  0  0  0  0  0  0  0
   10.0534    2.1730    0.0000 C   0  0  0  0  0  0  0  0  0  0  0  0
    9.5133    1.5493    0.0000 C   0  0  0  0  0  0  0  0  0  0  0  0
    8.7032    1.7052    0.0000 C   0  0  0  0  0  0  0  0  0  0  0  0
    7.3530    1.2375    0.0000 C   0  0  0  0  0  0  0  0  0  0  0  0
    6.8129    0.6139    0.0000 C   0  0  0  0  0  0  0  0  0  0  0  0
    7.0829   -0.1657    0.0000 C   0  0  0  0  0  0  0  0  0  0  0  0
    6.5428   -0.7893    0.0000 C   0  0  0  0  0  0  0  0  0  0  0  0
    5.7327   -0.6334    0.0000 C   0  0  0  0  0  0  0  0  0  0  0  0
    5.4627    0.1461    0.0000 C   0  0  0  0  0  0  0  0  0  0  0  0
    6.0028    0.7698    0.0000 C   0  0  0  0  0  0  0  0  0  0  0  0
  1  2  1  0  0  0  0
  2  3  1  0  0  0  0
  3  4  1  0  0  0  0
  3  5  1  0  0  0  0
  5  6  1  0  0  0  0
  5  7  1  0  0  0  0
  7  8  1  0  0  0  0
  8  9  1  0  0  0  0
  9 10  1  0  0  0  0
 10 11  1  0  0  0  0
 11 12  2  0  0  0  0
 12 13  1  0  0  0  0
 13 14  2  0  0  0  0
 14 15  1  0  0  0  0
 15 16  2  0  0  0  0
 11 16  1  0  0  0  0
  9 17  1  0  0  0  0
 17 18  1  0  0  0  0
 18 19  2  0  0  0  0
 19 20  1  0  0  0  0
 20 21  2  0  0  0  0
 21 22  1  0  0  0  0
 22 23  2  0  0  0  0
 18 23  1  0  0  0  0
M  END
> <ID>
CPD_4942

$$$$
CPD_4947
  Mrv1822 09091914012D          

 24 26  0  0  0  0            999 V2000
   -0.0000    0.8250    0.0000 O   0  0  0  0  0  0  0  0  0  0  0  0
    0.0000   -0.0000    0.0000 C   0  0  0  0  0  0  0  0  0  0  0  0
    0.7145   -0.4125    0.0000 C   0  0  0  0  0  0  0  0  0  0  0  0
    0.7145   -1.2375    0.0000 C   0  0  0  0  0  0  0  0  0  0  0  0
    0.0000   -1.6500    0.0000 C   0  0  0  0  0  0  0  0  0  0  0  0
   -0.7145   -1.2375    0.0000 C   0  0  0  0  0  0  0  0  0  0  0  0
   -0.7145   -0.4125    0.0000 C   0  0  0  0  0  0  0  0  0  0  0  0
    0.0000   -2.4750    0.0000 C   0  0  0  0  0  0  0  0  0  0  0  0
    0.6674   -2.9599    0.0000 N   0  0  0  0  0  0  0  0  0  0  0  0
    0.4125   -3.7445    0.0000 N   0  0  0  0  0  0  0  0  0  0  0  0
   -0.4125   -3.7445    0.0000 C   0  0  0  0  0  0  0  0  0  0  0  0
   -0.8974   -4.4120    0.0000 C   0  0  0  0  0  0  0  0  0  0  0  0
   -1.7179   -4.3257    0.0000 O   0  0  0  0  0  0  0  0  0  0  0  0
   -2.2028   -4.9932    0.0000 C   0  0  0  0  0  0  0  0  0  0  0  0
   -1.8673   -5.7469    0.0000 C   0  0  0  0  0  0  0  0  0  0  0  0
   -2.3522   -6.4143    0.0000 C   0  0  0  0  0  0  0  0  0  0  0  0
   -3.1727   -6.3281    0.0000 C   0  0  0  0  0  0  0  0  0  0  0  0
   -3.5082   -5.5744    0.0000 C   0  0  0  0  0  0  0  0  0  0  0  0
   -3.0233   -4.9070    0.0000 C   0  0  0  0  0  0  0  0  0  0  0  0
   -4.3287   -5.4882    0.0000 C   0  0  0  0  0  0  0  0  0  0  0  0
   -5.1492   -5.4019    0.0000 F   0  0  0  0  0  0  0  0  0  0  0  0
   -4.2425   -4.6677    0.0000 F   0  0  0  0  0  0  0  0  0  0  0  0
   -4.4149   -6.3086    0.0000 F   0  0  0  0  0  0  0  0  0  0  0  0
   -0.6674   -2.9599    0.0000 N   0  0  0  0  0  0  0  0  0  0  0  0
  1  2  1  0  0  0  0
  2  3  1  0  0  0  0
  3  4  1  0  0  0  0
  4  5  1  0  0  0  0
  5  6  1  0  0  0  0
  6  7  1  0  0  0  0
  2  7  1  0  0  0  0
  5  8  1  0  0  0  0
  8  9  2  0  0  0  0
  9 10  1  0  0  0  0
 10 11  1  0  0  0  0
 11 12  1  0  0  0  0
 12 13  1  0  0  0  0
 13 14  1  0  0  0  0
 14 15  2  0  0  0  0
 15 16  1  0  0  0  0
 16 17  2  0  0  0  0
 17 18  1  0  0  0  0
 18 19  2  0  0  0  0
 14 19  1  0  0  0  0
 18 20  1  0  0  0  0
 20 21  1  0  0  0  0
 20 22  1  0  0  0  0
 20 23  1  0  0  0  0
 11 24  2  0  0  0  0
  8 24  1  0  0  0  0
M  END
> <ID>
CPD_4947

$$$$
CPD_4952
  Mrv1822 09091914012D          

 23 25  0  0  0  0            999 V2000
   -3.4727   -7.3611    0.0000 N   0  0  0  0  0  0  0  0  0  0  0  0
   -2.7582   -7.7736    0.0000 C   0  0  0  0  0  0  0  0  0  0  0  0
   -2.0437   -8.1861    0.0000 C   0  0  0  0  0  0  0  0  0  0  0  0
   -1.3293   -7.7736    0.0000 C   0  0  0  0  0  0  0  0  0  0  0  0
   -0.6148   -8.1861    0.0000 O   0  0  0  0  0  0  0  0  0  0  0  0
    0.0997   -7.7736    0.0000 C   0  0  0  0  0  0  0  0  0  0  0  0
    0.8141   -8.1861    0.0000 C   0  0  0  0  0  0  0  0  0  0  0  0
    1.5286   -7.7736    0.0000 C   0  0  0  0  0  0  0  0  0  0  0  0
    1.6148   -6.9531    0.0000 N   0  0  0  0  0  0  0  0  0  0  0  0
    2.4218   -6.7816    0.0000 N   0  0  0  0  0  0  0  0  0  0  0  0
    2.8343   -7.4961    0.0000 C   0  0  0  0  0  0  0  0  0  0  0  0
    3.6548   -7.5823    0.0000 C   0  0  0  0  0  0  0  0  0  0  0  0
    4.1397   -6.9149    0.0000 C   0  0  0  0  0  0  0  0  0  0  0  0
    4.9602   -7.0011    0.0000 C   0  0  0  0  0  0  0  0  0  0  0  0
    5.3727   -7.7156    0.0000 N   0  0  0  0  0  0  0  0  0  0  0  0
    6.1797   -7.5441    0.0000 C   0  0  0  0  0  0  0  0  0  0  0  0
    6.2659   -6.7236    0.0000 C   0  0  0  0  0  0  0  0  0  0  0  0
    5.5122   -6.3880    0.0000 N   0  0  0  0  0  0  0  0  0  0  0  0
    7.0196   -6.3880    0.0000 C   0  0  0  0  0  0  0  0  0  0  0  0
    7.6870   -6.8729    0.0000 C   0  0  0  0  0  0  0  0  0  0  0  0
    7.6008   -7.6934    0.0000 C   0  0  0  0  0  0  0  0  0  0  0  0
    6.8471   -8.0290    0.0000 C   0  0  0  0  0  0  0  0  0  0  0  0
    2.2823   -8.1092    0.0000 N   0  0  0  0  0  0  0  0  0  0  0  0
  1  2  3  0  0  0  0
  2  3  1  0  0  0  0
  3  4  1  0  0  0  0
  4  5  1  0  0  0  0
  5  6  1  0  0  0  0
  6  7  1  0  0  0  0
  7  8  1  0  0  0  0
  8  9  2  0  0  0  0
  9 10  1  0  0  0  0
 10 11  1  0  0  0  0
 11 12  1  0  0  0  0
 12 13  1  0  0  0  0
 13 14  1  0  0  0  0
 14 15  2  0  0  0  0
 15 16  1  0  0  0  0
 16 17  2  0  0  0  0
 17 18  1  0  0  0  0
 14 18  1  0  0  0  0
 17 19  1  0  0  0  0
 19 20  2  0  0  0  0
 20 21  1  0  0  0  0
 21 22  2  0  0  0  0
 16 22  1  0  0  0  0
 11 23  2  0  0  0  0
  8 23  1  0  0  0  0
M  END
> <ID>
CPD_4952

$$$$
CPD_4957
  Mrv1822 09091914012D          

 22 24  0  0  0  0            999 V2000
   -1.4289    0.0000    0.0000 C   0  0  0  0  0  0  0  0  0  0  0  0
   -0.7145   -0.4125    0.0000 O   0  0  0  0  0  0  0  0  0  0  0  0
    0.0000    0.0000    0.0000 C   0  0  0  0  0  0  0  0  0  0  0  0
    0.0000    0.8250    0.0000 O   0  0  0  0  0  0  0  0  0  0  0  0
    0.7145   -0.4125    0.0000 C   0  0  0  0  0  0  0  0  0  0  0  0
    1.4289    0.0000    0.0000 C   0  0  0  0  0  0  0  0  0  0  0  0
    2.1434   -0.4125    0.0000 C   0  0  0  0  0  0  0  0  0  0  0  0
    2.8579    0.0000    0.0000 C   0  0  0  0  0  0  0  0  0  0  0  0
    3.5724   -0.4125    0.0000 C   0  0  0  0  0  0  0  0  0  0  0  0
    3.5724   -1.2375    0.0000 C   0  0  0  0  0  0  0  0  0  0  0  0
    2.8579   -1.6500    0.0000 C   0  0  0  0  0  0  0  0  0  0  0  0
    2.1434   -1.2375    0.0000 C   0  0  0  0  0  0  0  0  0  0  0  0
    1.4289   -1.6500    0.0000 O   0  0  0  0  0  0  0  0  0  0  0  0
    0.7145   -1.2375    0.0000 C   0  0  0  0  0  0  0  0  0  0  0  0
    0.0000   -1.6500    0.0000 O   0  0  0  0  0  0  0  0  0  0  0  0
    4.2868   -0.0000    0.0000 C   0  0  0  0  0  0  0  0  0  0  0  0
    4.3731    0.8205    0.0000 C   0  0  0  0  0  0  0  0  0  0  0  0
    5.1800    0.9920    0.0000 C   0  0  0  0  0  0  0  0  0  0  0  0
    5.5156    1.7457    0.0000 C   0  0  0  0  0  0  0  0  0  0  0  0
    5.0307    2.4131    0.0000 O   0  0  0  0  0  0  0  0  0  0  0  0
    5.5925    0.2775    0.0000 C   0  0  0  0  0  0  0  0  0  0  0  0
    5.0405   -0.3356    0.0000 S   0  0  0  0  0  0  0  0  0  0  0  0
  1  2  1  0  0  0  0
  2  3  1  0  0  0  0
  3  4  2  0  0  0  0
  3  5  1  0  0  0  0
  5  6  2  0  0  0  0
  6  7  1  0  0  0  0
  7  8  2  0  0  0  0
  8  9  1  0  0  0  0
  9 10  2  0  0  0  0
 10 11  1  0  0  0  0
 11 12  2  0  0  0  0
  7 12  1  0  0  0  0
 12 13  1  0  0  0  0
 13 14  1  0  0  0  0
  5 14  1  0  0  0  0
 14 15  2  0  0  0  0
  9 16  1  0  0  0  0
 16 17  2  0  0  0  0
 17 18  1  0  0  0  0
 18 19  1  0  0  0  0
 19 20  1  0  0  0  0
 18 21  2  0  0  0  0
 21 22  1  0  0  0  0
 16 22  1  0  0  0  0
M  END
> <ID>
CPD_4957

$$$$
CPD_4962
  Mrv1822 09091914012D          

 22 24  0  0  0  0            999 V2000
   -0.6078   -1.2991    0.0000 O   0  0  0  0  0  0  0  0  0  0  0  0
   -1.3222   -1.7116    0.0000 C   0  0  0  0  0  0  0  0  0  0  0  0
   -1.3222   -2.5366    0.0000 C   0  0  0  0  0  0  0  0  0  0  0  0
   -0.6548   -3.0215    0.0000 C   0  0  0  0  0  0  0  0  0  0  0  0
   -0.9097   -3.8062    0.0000 S   0  0  0  0  0  0  0  0  0  0  0  0
   -1.7347   -3.8062    0.0000 C   0  0  0  0  0  0  0  0  0  0  0  0
   -1.9897   -3.0215    0.0000 C   0  0  0  0  0  0  0  0  0  0  0  0
   -2.2197   -4.4736    0.0000 C   0  0  0  0  0  0  0  0  0  0  0  0
   -1.8841   -5.2273    0.0000 C   0  0  0  0  0  0  0  0  0  0  0  0
   -2.3690   -5.8947    0.0000 C   0  0  0  0  0  0  0  0  0  0  0  0
   -3.1895   -5.8085    0.0000 C   0  0  0  0  0  0  0  0  0  0  0  0
   -3.5251   -5.0548    0.0000 C   0  0  0  0  0  0  0  0  0  0  0  0
   -3.0401   -4.3874    0.0000 C   0  0  0  0  0  0  0  0  0  0  0  0
   -3.3757   -3.6337    0.0000 F   0  0  0  0  0  0  0  0  0  0  0  0
   -2.0335   -6.6484    0.0000 C   0  0  0  0  0  0  0  0  0  0  0  0
   -1.2130   -6.7346    0.0000 C   0  0  0  0  0  0  0  0  0  0  0  0
   -0.8774   -7.4883    0.0000 C   0  0  0  0  0  0  0  0  0  0  0  0
   -1.3624   -8.1557    0.0000 C   0  0  0  0  0  0  0  0  0  0  0  0
   -2.1828   -8.0695    0.0000 C   0  0  0  0  0  0  0  0  0  0  0  0
   -2.5184   -7.3158    0.0000 C   0  0  0  0  0  0  0  0  0  0  0  0
   -0.0569   -7.5745    0.0000 C   0  0  0  0  0  0  0  0  0  0  0  0
    0.7635   -7.6608    0.0000 N   0  0  0  0  0  0  0  0  0  0  0  0
  1  2  1  0  0  0  0
  2  3  1  0  0  0  0
  3  4  2  0  0  0  0
  4  5  1  0  0  0  0
  5  6  1  0  0  0  0
  6  7  2  0  0  0  0
  3  7  1  0  0  0  0
  6  8  1  0  0  0  0
  8  9  2  0  0  0  0
  9 10  1  0  0  0  0
 10 11  2  0  0  0  0
 11 12  1  0  0  0  0
 12 13  2  0  0  0  0
  8 13  1  0  0  0  0
 13 14  1  0  0  0  0
 10 15  1  0  0  0  0
 15 16  2  0  0  0  0
 16 17  1  0  0  0  0
 17 18  2  0  0  0  0
 18 19  1  0  0  0  0
 19 20  2  0  0  0  0
 15 20  1  0  0  0  0
 17 21  1  0  0  0  0
 21 22  3  0  0  0  0
M  END
> <ID>
CPD_4962

$$$$
CPD_4967
  Mrv1822 09091914012D          

 19 21  0  0  0  0            999 V2000
    0.5867   -4.8826    0.0000 O   0  0  0  0  0  0  0  0  0  0  0  0
    1.1387   -4.2695    0.0000 C   0  0  0  0  0  0  0  0  0  0  0  0
    0.8838   -3.4849    0.0000 C   0  0  0  0  0  0  0  0  0  0  0  0
    0.0992   -3.2299    0.0000 C   0  0  0  0  0  0  0  0  0  0  0  0
    0.0992   -2.4049    0.0000 S   0  0  0  0  0  0  0  0  0  0  0  0
    0.8838   -2.1500    0.0000 C   0  0  0  0  0  0  0  0  0  0  0  0
    1.3687   -2.8174    0.0000 C   0  0  0  0  0  0  0  0  0  0  0  0
    1.1387   -1.3654    0.0000 C   0  0  0  0  0  0  0  0  0  0  0  0
    0.6538   -0.6979    0.0000 C   0  0  0  0  0  0  0  0  0  0  0  0
    1.1387   -0.0305    0.0000 N   0  0  0  0  0  0  0  0  0  0  0  0
    1.9233   -0.2854    0.0000 C   0  0  0  0  0  0  0  0  0  0  0  0
    2.6378    0.1271    0.0000 N   0  0  0  0  0  0  0  0  0  0  0  0
    3.3523   -0.2854    0.0000 C   0  0  0  0  0  0  0  0  0  0  0  0
    3.3523   -1.1104    0.0000 C   0  0  0  0  0  0  0  0  0  0  0  0
    4.0668   -1.5229    0.0000 F   0  0  0  0  0  0  0  0  0  0  0  0
    2.6378   -1.5229    0.0000 C   0  0  0  0  0  0  0  0  0  0  0  0
    2.6378   -2.3479    0.0000 C   0  0  0  0  0  0  0  0  0  0  0  0
    2.6378   -3.1729    0.0000 N   0  0  0  0  0  0  0  0  0  0  0  0
    1.9233   -1.1104    0.0000 C   0  0  0  0  0  0  0  0  0  0  0  0
  1  2  1  0  0  0  0
  2  3  1  0  0  0  0
  3  4  2  0  0  0  0
  4  5  1  0  0  0  0
  5  6  1  0  0  0  0
  6  7  2  0  0  0  0
  3  7  1  0  0  0  0
  6  8  1  0  0  0  0
  8  9  2  0  0  0  0
  9 10  1  0  0  0  0
 10 11  1  0  0  0  0
 11 12  2  0  0  0  0
 12 13  1  0  0  0  0
 13 14  2  0  0  0  0
 14 15  1  0  0  0  0
 14 16  1  0  0  0  0
 16 17  1  0  0  0  0
 17 18  3  0  0  0  0
 16 19  2  0  0  0  0
  8 19  1  0  0  0  0
 11 19  1  0  0  0  0
M  END
> <ID>
CPD_4967

$$$$
CPD_4972
  Mrv1822 09091914012D          

 25 27  0  0  0  0            999 V2000
    2.1434   -0.4125    0.0000 C   0  0  0  0  0  0  0  0  0  0  0  0
    2.1434   -1.2375    0.0000 O   0  0  0  0  0  0  0  0  0  0  0  0
    1.4289   -1.6500    0.0000 C   0  0  0  0  0  0  0  0  0  0  0  0
    1.4289   -2.4750    0.0000 C   0  0  0  0  0  0  0  0  0  0  0  0
    0.7145   -2.8875    0.0000 C   0  0  0  0  0  0  0  0  0  0  0  0
    0.0000   -2.4750    0.0000 C   0  0  0  0  0  0  0  0  0  0  0  0
    0.0000   -1.6500    0.0000 C   0  0  0  0  0  0  0  0  0  0  0  0
    0.7145   -1.2375    0.0000 C   0  0  0  0  0  0  0  0  0  0  0  0
    0.7145   -0.4125    0.0000 C   0  0  0  0  0  0  0  0  0  0  0  0
   -0.0000   -0.0000    0.0000 C   0  0  0  0  0  0  0  0  0  0  0  0
   -0.0000    0.8250    0.0000 C   0  0  0  0  0  0  0  0  0  0  0  0
    0.7145    1.2375    0.0000 C   0  0  0  0  0  0  0  0  0  0  0  0
    0.7145    2.0625    0.0000 C   0  0  0  0  0  0  0  0  0  0  0  0
    1.4289    2.4750    0.0000 C   0  0  0  0  0  0  0  0  0  0  0  0
    1.4289    3.3000    0.0000 O   0  0  0  0  0  0  0  0  0  0  0  0
    2.1434    2.0625    0.0000 O   0  0  0  0  0  0  0  0  0  0  0  0
    1.4289    0.8250    0.0000 C   0  0  0  0  0  0  0  0  0  0  0  0
    1.4289    0.0000    0.0000 C   0  0  0  0  0  0  0  0  0  0  0  0
    0.7145   -3.7125    0.0000 C   0  0  0  0  0  0  0  0  0  0  0  0
    1.3819   -4.1974    0.0000 C   0  0  0  0  0  0  0  0  0  0  0  0
    1.1270   -4.9820    0.0000 C   0  0  0  0  0  0  0  0  0  0  0  0
    1.6119   -5.6495    0.0000 C   0  0  0  0  0  0  0  0  0  0  0  0
    2.4324   -5.5632    0.0000 O   0  0  0  0  0  0  0  0  0  0  0  0
    0.3020   -4.9820    0.0000 C   0  0  0  0  0  0  0  0  0  0  0  0
    0.0470   -4.1974    0.0000 S   0  0  0  0  0  0  0  0  0  0  0  0
  1  2  1  0  0  0  0
  2  3  1  0  0  0  0
  3  4  2  0  0  0  0
  4  5  1  0  0  0  0
  5  6  2  0  0  0  0
  6  7  1  0  0  0  0
  7  8  2  0  0  0  0
  3  8  1  0  0  0  0
  8  9  1  0  0  0  0
  9 10  2  0  0  0  0
 10 11  1  0  0  0  0
 11 12  2  0  0  0  0
 12 13  1  0  0  0  0
 13 14  1  0  0  0  0
 14 15  1  0  0  0  0
 14 16  2  0  0  0  0
 12 17  1  0  0  0  0
 17 18  2  0  0  0  0
  9 18  1  0  0  0  0
  5 19  1  0  0  0  0
 19 20  2  0  0  0  0
 20 21  1  0  0  0  0
 21 22  1  0  0  0  0
 22 23  1  0  0  0  0
 21 24  2  0  0  0  0
 24 25  1  0  0  0  0
 19 25  1  0  0  0  0
M  END
> <ID>
CPD_4972

$$$$
CPD_4977
  Mrv1822 09091914012D          

 27 28  0  0  0  0            999 V2000
   -2.6835   -5.5639    0.0000 C   0  0  0  0  0  0  0  0  0  0  0  0
   -2.1434   -6.1875    0.0000 O   0  0  0  0  0  0  0  0  0  0  0  0
   -1.3333   -6.0316    0.0000 C   0  0  0  0  0  0  0  0  0  0  0  0
   -1.0632   -5.2520    0.0000 O   0  0  0  0  0  0  0  0  0  0  0  0
   -0.7932   -6.6552    0.0000 C   0  0  0  0  0  0  0  0  0  0  0  0
    0.0169   -6.4993    0.0000 C   0  0  0  0  0  0  0  0  0  0  0  0
    0.5570   -7.1230    0.0000 C   0  0  0  0  0  0  0  0  0  0  0  0
    1.3672   -6.9671    0.0000 N   0  0  0  0  0  0  0  0  0  0  0  0
    1.9073   -7.5907    0.0000 C   0  0  0  0  0  0  0  0  0  0  0  0
    2.7174   -7.4348    0.0000 C   0  0  0  0  0  0  0  0  0  0  0  0
    3.2575   -8.0584    0.0000 C   0  0  0  0  0  0  0  0  0  0  0  0
    2.9874   -8.8380    0.0000 C   0  0  0  0  0  0  0  0  0  0  0  0
    2.1773   -8.9939    0.0000 C   0  0  0  0  0  0  0  0  0  0  0  0
    1.6372   -8.3702    0.0000 C   0  0  0  0  0  0  0  0  0  0  0  0
    4.0676   -7.9025    0.0000 C   0  0  0  0  0  0  0  0  0  0  0  0
    4.3377   -7.1230    0.0000 C   0  0  0  0  0  0  0  0  0  0  0  0
    5.1478   -6.9671    0.0000 C   0  0  0  0  0  0  0  0  0  0  0  0
    5.6879   -7.5907    0.0000 C   0  0  0  0  0  0  0  0  0  0  0  0
    6.4980   -7.4348    0.0000 C   0  0  0  0  0  0  0  0  0  0  0  0
    7.0381   -8.0584    0.0000 C   0  0  0  0  0  0  0  0  0  0  0  0
    7.8482   -7.9025    0.0000 O   0  0  0  0  0  0  0  0  0  0  0  0
    5.4178   -8.3702    0.0000 C   0  0  0  0  0  0  0  0  0  0  0  0
    4.6077   -8.5262    0.0000 C   0  0  0  0  0  0  0  0  0  0  0  0
    1.6372   -6.1875    0.0000 S   0  0  0  0  0  0  0  0  0  0  0  0
    2.4168   -6.4575    0.0000 C   0  0  0  0  0  0  0  0  0  0  0  0
    0.8577   -5.9175    0.0000 O   0  0  0  0  0  0  0  0  0  0  0  0
    1.9073   -5.4079    0.0000 O   0  0  0  0  0  0  0  0  0  0  0  0
  1  2  1  0  0  0  0
  2  3  1  0  0  0  0
  3  4  2  0  0  0  0
  3  5  1  0  0  0  0
  5  6  1  0  0  0  0
  6  7  1  0  0  0  0
  7  8  1  0  0  0  0
  8  9  1  0  0  0  0
  9 10  2  0  0  0  0
 10 11  1  0  0  0  0
 11 12  2  0  0  0  0
 12 13  1  0  0  0  0
 13 14  2  0  0  0  0
  9 14  1  0  0  0  0
 11 15  1  0  0  0  0
 15 16  2  0  0  0  0
 16 17  1  0  0  0  0
 17 18  2  0  0  0  0
 18 19  1  0  0  0  0
 19 20  1  0  0  0  0
 20 21  1  0  0  0  0
 18 22  1  0  0  0  0
 22 23  2  0  0  0  0
 15 23  1  0  0  0  0
  8 24  1  0  0  0  0
 24 25  1  0  0  0  0
 24 26  2  0  0  0  0
 24 27  2  0  0  0  0
M  END
> <ID>
CPD_4977

$$$$
CPD_4982
  Mrv1822 09091914012D          

 33 36  0  0  0  0            999 V2000
    0.7145   -3.7125    0.0000 C   0  0  0  0  0  0  0  0  0  0  0  0
    0.7145   -2.8875    0.0000 O   0  0  0  0  0  0  0  0  0  0  0  0
    1.4289   -2.4750    0.0000 C   0  0  0  0  0  0  0  0  0  0  0  0
    2.1434   -2.8875    0.0000 O   0  0  0  0  0  0  0  0  0  0  0  0
    1.4289   -1.6500    0.0000 C   0  0  0  0  0  0  0  0  0  0  0  0
    0.7145   -1.2375    0.0000 N   0  0  0  0  0  0  0  0  0  0  0  0
    0.7145   -0.4125    0.0000 C   0  0  0  0  0  0  0  0  0  0  0  0
    1.4289    0.0000    0.0000 C   0  0  0  0  0  0  0  0  0  0  0  0
    2.1434   -0.4125    0.0000 C   0  0  0  0  0  0  0  0  0  0  0  0
    2.8579    0.0000    0.0000 C   0  0  0  0  0  0  0  0  0  0  0  0
    3.5724   -0.4125    0.0000 C   0  0  0  0  0  0  0  0  0  0  0  0
    3.5724   -1.2375    0.0000 C   0  0  0  0  0  0  0  0  0  0  0  0
    2.8579   -1.6500    0.0000 C   0  0  0  0  0  0  0  0  0  0  0  0
    2.1434   -1.2375    0.0000 C   0  0  0  0  0  0  0  0  0  0  0  0
    2.8579    0.8250    0.0000 C   0  0  0  0  0  0  0  0  0  0  0  0
    2.1434    1.2375    0.0000 C   0  0  0  0  0  0  0  0  0  0  0  0
    2.1434    2.0625    0.0000 C   0  0  0  0  0  0  0  0  0  0  0  0
    2.8579    2.4750    0.0000 C   0  0  0  0  0  0  0  0  0  0  0  0
    2.8579    3.3000    0.0000 C   0  0  0  0  0  0  0  0  0  0  0  0
    3.5724    3.7125    0.0000 S   0  0  0  0  0  0  0  0  0  0  0  0
    3.9849    2.9980    0.0000 O   0  0  0  0  0  0  0  0  0  0  0  0
    3.1599    4.4270    0.0000 O   0  0  0  0  0  0  0  0  0  0  0  0
    4.2868    4.1250    0.0000 N   0  0  0  0  0  0  0  0  0  0  0  0
    4.2868    4.9500    0.0000 C   0  0  0  0  0  0  0  0  0  0  0  0
    5.0013    5.3625    0.0000 C   0  0  0  0  0  0  0  0  0  0  0  0
    5.7158    4.9500    0.0000 C   0  0  0  0  0  0  0  0  0  0  0  0
    5.7158    4.1250    0.0000 C   0  0  0  0  0  0  0  0  0  0  0  0
    5.0013    3.7125    0.0000 C   0  0  0  0  0  0  0  0  0  0  0  0
    6.4302    5.3625    0.0000 C   0  0  0  0  0  0  0  0  0  0  0  0
    6.4302    6.1875    0.0000 O   0  0  0  0  0  0  0  0  0  0  0  0
    7.1447    4.9500    0.0000 O   0  0  0  0  0  0  0  0  0  0  0  0
    3.5724    2.0625    0.0000 C   0  0  0  0  0  0  0  0  0  0  0  0
    3.5724    1.2375    0.0000 C   0  0  0  0  0  0  0  0  0  0  0  0
  1  2  1  0  0  0  0
  2  3  1  0  0  0  0
  3  4  2  0  0  0  0
  3  5  1  0  0  0  0
  5  6  2  0  0  0  0
  6  7  1  0  0  0  0
  7  8  2  0  0  0  0
  8  9  1  0  0  0  0
  9 10  2  0  0  0  0
 10 11  1  0  0  0  0
 11 12  2  0  0  0  0
 12 13  1  0  0  0  0
 13 14  2  0  0  0  0
  5 14  1  0  0  0  0
  9 14  1  0  0  0  0
 10 15  1  0  0  0  0
 15 16  2  0  0  0  0
 16 17  1  0  0  0  0
 17 18  2  0  0  0  0
 18 19  1  0  0  0  0
 19 20  1  0  0  0  0
 20 21  2  0  0  0  0
 20 22  2  0  0  0  0
 20 23  1  0  0  0  0
 23 24  1  0  0  0  0
 24 25  1  0  0  0  0
 25 26  1  0  0  0  0
 26 27  1  0  0  0  0
 27 28  1  0  0  0  0
 23 28  1  0  0  0  0
 26 29  1  0  0  0  0
 29 30  1  0  0  0  0
 29 31  2  0  0  0  0
 18 32  1  0  0  0  0
 32 33  2  0  0  0  0
 15 33  1  0  0  0  0
M  END
> <ID>
CPD_4982

$$$$
CPD_4987
  Mrv1822 09091914012D          

 26 28  0  0  0  0            999 V2000
   -1.5395   -3.7125    0.0000 C   0  0  0  0  0  0  0  0  0  0  0  0
   -0.7145   -3.7125    0.0000 S   0  0  0  0  0  0  0  0  0  0  0  0
    0.1105   -3.7125    0.0000 O   0  0  0  0  0  0  0  0  0  0  0  0
   -0.7145   -4.5375    0.0000 O   0  0  0  0  0  0  0  0  0  0  0  0
   -0.7145   -2.8875    0.0000 N   0  0  0  0  0  0  0  0  0  0  0  0
    0.0000   -2.4750    0.0000 C   0  0  0  0  0  0  0  0  0  0  0  0
    0.7145   -2.8875    0.0000 C   0  0  0  0  0  0  0  0  0  0  0  0
    1.4289   -2.4750    0.0000 C   0  0  0  0  0  0  0  0  0  0  0  0
    2.1434   -2.8875    0.0000 C   0  0  0  0  0  0  0  0  0  0  0  0
    2.8579   -2.4750    0.0000 O   0  0  0  0  0  0  0  0  0  0  0  0
    2.1434   -3.7125    0.0000 O   0  0  0  0  0  0  0  0  0  0  0  0
   -1.4289   -2.4750    0.0000 C   0  0  0  0  0  0  0  0  0  0  0  0
   -2.1434   -2.8875    0.0000 C   0  0  0  0  0  0  0  0  0  0  0  0
   -2.8579   -2.4750    0.0000 C   0  0  0  0  0  0  0  0  0  0  0  0
   -2.8579   -1.6500    0.0000 C   0  0  0  0  0  0  0  0  0  0  0  0
   -2.1434   -1.2375    0.0000 C   0  0  0  0  0  0  0  0  0  0  0  0
   -1.4289   -1.6500    0.0000 C   0  0  0  0  0  0  0  0  0  0  0  0
   -3.5724   -2.8875    0.0000 C   0  0  0  0  0  0  0  0  0  0  0  0
   -3.5724   -3.7125    0.0000 C   0  0  0  0  0  0  0  0  0  0  0  0
   -4.2868   -4.1250    0.0000 C   0  0  0  0  0  0  0  0  0  0  0  0
   -5.0013   -3.7125    0.0000 C   0  0  0  0  0  0  0  0  0  0  0  0
   -5.0013   -2.8875    0.0000 C   0  0  0  0  0  0  0  0  0  0  0  0
   -4.2868   -2.4750    0.0000 C   0  0  0  0  0  0  0  0  0  0  0  0
   -4.4584   -1.6680    0.0000 N   0  0  0  0  0  0  0  0  0  0  0  0
   -5.2788   -1.5818    0.0000 C   0  0  0  0  0  0  0  0  0  0  0  0
   -5.6144   -2.3355    0.0000 S   0  0  0  0  0  0  0  0  0  0  0  0
  1  2  1  0  0  0  0
  2  3  2  0  0  0  0
  2  4  2  0  0  0  0
  2  5  1  0  0  0  0
  5  6  1  0  0  0  0
  6  7  1  0  0  0  0
  7  8  1  0  0  0  0
  8  9  1  0  0  0  0
  9 10  1  0  0  0  0
  9 11  2  0  0  0  0
  5 12  1  0  0  0  0
 12 13  2  0  0  0  0
 13 14  1  0  0  0  0
 14 15  2  0  0  0  0
 15 16  1  0  0  0  0
 16 17  2  0  0  0  0
 12 17  1  0  0  0  0
 14 18  1  0  0  0  0
 18 19  2  0  0  0  0
 19 20  1  0  0  0  0
 20 21  2  0  0  0  0
 21 22  1  0  0  0  0
 22 23  2  0  0  0  0
 18 23  1  0  0  0  0
 23 24  1  0  0  0  0
 24 25  2  0  0  0  0
 25 26  1  0  0  0  0
 22 26  1  0  0  0  0
M  END
> <ID>
CPD_4987

$$$$
CPD_4992
  Mrv1822 09091914012D          

 25 26  0  0  0  0            999 V2000
   -1.5395   -3.7125    0.0000 C   0  0  0  0  0  0  0  0  0  0  0  0
   -0.7145   -3.7125    0.0000 S   0  0  0  0  0  0  0  0  0  0  0  0
    0.1105   -3.7125    0.0000 O   0  0  0  0  0  0  0  0  0  0  0  0
   -0.7145   -4.5375    0.0000 O   0  0  0  0  0  0  0  0  0  0  0  0
   -0.7145   -2.8875    0.0000 N   0  0  0  0  0  0  0  0  0  0  0  0
    0.0000   -2.4750    0.0000 C   0  0  0  0  0  0  0  0  0  0  0  0
    0.7145   -2.8875    0.0000 C   0  0  0  0  0  0  0  0  0  0  0  0
    1.4289   -2.4750    0.0000 C   0  0  0  0  0  0  0  0  0  0  0  0
    2.1434   -2.8875    0.0000 C   0  0  0  0  0  0  0  0  0  0  0  0
    2.8579   -2.4750    0.0000 O   0  0  0  0  0  0  0  0  0  0  0  0
    2.1434   -3.7125    0.0000 O   0  0  0  0  0  0  0  0  0  0  0  0
   -1.4289   -2.4750    0.0000 C   0  0  0  0  0  0  0  0  0  0  0  0
   -2.1434   -2.8875    0.0000 C   0  0  0  0  0  0  0  0  0  0  0  0
   -2.8579   -2.4750    0.0000 C   0  0  0  0  0  0  0  0  0  0  0  0
   -2.8579   -1.6500    0.0000 C   0  0  0  0  0  0  0  0  0  0  0  0
   -2.1434   -1.2375    0.0000 C   0  0  0  0  0  0  0  0  0  0  0  0
   -1.4289   -1.6500    0.0000 C   0  0  0  0  0  0  0  0  0  0  0  0
   -3.5724   -2.8875    0.0000 C   0  0  0  0  0  0  0  0  0  0  0  0
   -3.5724   -3.7125    0.0000 C   0  0  0  0  0  0  0  0  0  0  0  0
   -2.8579   -4.1250    0.0000 N   0  0  0  0  0  0  0  0  0  0  0  0
   -4.2868   -4.1250    0.0000 C   0  0  0  0  0  0  0  0  0  0  0  0
   -5.0013   -3.7125    0.0000 C   0  0  0  0  0  0  0  0  0  0  0  0
   -5.0013   -2.8875    0.0000 C   0  0  0  0  0  0  0  0  0  0  0  0
   -5.7158   -2.4750    0.0000 Cl  0  0  0  0  0  0  0  0  0  0  0  0
   -4.2868   -2.4750    0.0000 C   0  0  0  0  0  0  0  0  0  0  0  0
  1  2  1  0  0  0  0
  2  3  2  0  0  0  0
  2  4  2  0  0  0  0
  2  5  1  0  0  0  0
  5  6  1  0  0  0  0
  6  7  1  0  0  0  0
  7  8  1  0  0  0  0
  8  9  1  0  0  0  0
  9 10  1  0  0  0  0
  9 11  2  0  0  0  0
  5 12  1  0  0  0  0
 12 13  2  0  0  0  0
 13 14  1  0  0  0  0
 14 15  2  0  0  0  0
 15 16  1  0  0  0  0
 16 17  2  0  0  0  0
 12 17  1  0  0  0  0
 14 18  1  0  0  0  0
 18 19  2  0  0  0  0
 19 20  1  0  0  0  0
 19 21  1  0  0  0  0
 21 22  2  0  0  0  0
 22 23  1  0  0  0  0
 23 24  1  0  0  0  0
 23 25  2  0  0  0  0
 18 25  1  0  0  0  0
M  END
> <ID>
CPD_4992

$$$$
CPD_4997
  Mrv1822 09091914012D          

 33 34  0  0  0  0            999 V2000
    0.7145   -6.1875    0.0000 C   0  0  0  0  0  0  0  0  0  0  0  0
    1.4289   -6.6000    0.0000 C   0  0  0  0  0  0  0  0  0  0  0  0
    1.4289   -7.4250    0.0000 C   0  0  0  0  0  0  0  0  0  0  0  0
    2.1434   -6.1875    0.0000 N   0  0  0  0  0  0  0  0  0  0  0  0
    2.8579   -6.6000    0.0000 C   0  0  0  0  0  0  0  0  0  0  0  0
    2.8579   -7.4250    0.0000 N   0  0  0  0  0  0  0  0  0  0  0  0
    3.5724   -6.1875    0.0000 N   0  0  0  0  0  0  0  0  0  0  0  0
    4.2868   -6.6000    0.0000 C   0  0  0  0  0  0  0  0  0  0  0  0
    4.2868   -7.4250    0.0000 N   0  0  0  0  0  0  0  0  0  0  0  0
    5.0013   -6.1875    0.0000 N   0  0  0  0  0  0  0  0  0  0  0  0
    5.7158   -6.6000    0.0000 C   0  0  0  0  0  0  0  0  0  0  0  0
    6.4302   -6.1875    0.0000 C   0  0  0  0  0  0  0  0  0  0  0  0
    7.1447   -6.6000    0.0000 C   0  0  0  0  0  0  0  0  0  0  0  0
    7.1447   -7.4250    0.0000 C   0  0  0  0  0  0  0  0  0  0  0  0
    6.4302   -7.8375    0.0000 C   0  0  0  0  0  0  0  0  0  0  0  0
    5.7158   -7.4250    0.0000 C   0  0  0  0  0  0  0  0  0  0  0  0
    7.8592   -7.8375    0.0000 C   0  0  0  0  0  0  0  0  0  0  0  0
    8.5737   -7.4250    0.0000 C   0  0  0  0  0  0  0  0  0  0  0  0
    9.2881   -7.8375    0.0000 C   0  0  0  0  0  0  0  0  0  0  0  0
    9.2881   -8.6625    0.0000 C   0  0  0  0  0  0  0  0  0  0  0  0
    8.5737   -9.0750    0.0000 C   0  0  0  0  0  0  0  0  0  0  0  0
    7.8592   -8.6625    0.0000 C   0  0  0  0  0  0  0  0  0  0  0  0
    8.5737   -9.9000    0.0000 N   0  0  0  0  0  0  0  0  0  0  0  0
    9.2881  -10.3125    0.0000 C   0  0  0  0  0  0  0  0  0  0  0  0
    9.2881  -11.1375    0.0000 C   0  0  0  0  0  0  0  0  0  0  0  0
   10.0026  -11.5500    0.0000 C   0  0  0  0  0  0  0  0  0  0  0  0
   10.0026  -12.3750    0.0000 C   0  0  0  0  0  0  0  0  0  0  0  0
   10.7171  -12.7875    0.0000 O   0  0  0  0  0  0  0  0  0  0  0  0
    9.2881  -12.7875    0.0000 O   0  0  0  0  0  0  0  0  0  0  0  0
    7.8592  -10.3125    0.0000 S   0  0  0  0  0  0  0  0  0  0  0  0
    7.1447  -10.7250    0.0000 C   0  0  0  0  0  0  0  0  0  0  0  0
    8.2717  -11.0270    0.0000 O   0  0  0  0  0  0  0  0  0  0  0  0
    7.4467   -9.5980    0.0000 O   0  0  0  0  0  0  0  0  0  0  0  0
  1  2  1  0  0  0  0
  2  3  1  0  0  0  0
  2  4  1  0  0  0  0
  4  5  1  0  0  0  0
  5  6  2  0  0  0  0
  5  7  1  0  0  0  0
  7  8  1  0  0  0  0
  8  9  2  0  0  0  0
  8 10  1  0  0  0  0
 10 11  1  0  0  0  0
 11 12  2  0  0  0  0
 12 13  1  0  0  0  0
 13 14  2  0  0  0  0
 14 15  1  0  0  0  0
 15 16  2  0  0  0  0
 11 16  1  0  0  0  0
 14 17  1  0  0  0  0
 17 18  2  0  0  0  0
 18 19  1  0  0  0  0
 19 20  2  0  0  0  0
 20 21  1  0  0  0  0
 21 22  2  0  0  0  0
 17 22  1  0  0  0  0
 21 23  1  0  0  0  0
 23 24  1  0  0  0  0
 24 25  1  0  0  0  0
 25 26  1  0  0  0  0
 26 27  1  0  0  0  0
 27 28  1  0  0  0  0
 27 29  2  0  0  0  0
 23 30  1  0  0  0  0
 30 31  1  0  0  0  0
 30 32  2  0  0  0  0
 30 33  2  0  0  0  0
M  END
> <ID>
CPD_4997

$$$$
CPD_5002
  Mrv1822 09091914012D          

 25 27  0  0  0  0            999 V2000
    2.1434    3.7125    0.0000 N   0  0  0  0  0  0  0  0  0  0  0  0
    1.4289    3.3000    0.0000 C   0  0  0  0  0  0  0  0  0  0  0  0
    0.7145    3.7125    0.0000 C   0  0  0  0  0  0  0  0  0  0  0  0
    0.7145    4.5375    0.0000 O   0  0  0  0  0  0  0  0  0  0  0  0
   -0.0000    3.3000    0.0000 O   0  0  0  0  0  0  0  0  0  0  0  0
    1.4289    2.4750    0.0000 C   0  0  0  0  0  0  0  0  0  0  0  0
    2.1434    2.0625    0.0000 C   0  0  0  0  0  0  0  0  0  0  0  0
    2.1434    1.2375    0.0000 C   0  0  0  0  0  0  0  0  0  0  0  0
    2.8579    0.8250    0.0000 F   0  0  0  0  0  0  0  0  0  0  0  0
    1.4289    0.8250    0.0000 C   0  0  0  0  0  0  0  0  0  0  0  0
    0.7145    1.2375    0.0000 C   0  0  0  0  0  0  0  0  0  0  0  0
    0.7145    2.0625    0.0000 C   0  0  0  0  0  0  0  0  0  0  0  0
    1.4289    0.0000    0.0000 C   0  0  0  0  0  0  0  0  0  0  0  0
    2.1434   -0.4125    0.0000 C   0  0  0  0  0  0  0  0  0  0  0  0
    2.8579    0.0000    0.0000 N   0  0  0  0  0  0  0  0  0  0  0  0
    3.5724   -0.4125    0.0000 C   0  0  0  0  0  0  0  0  0  0  0  0
    3.5724   -1.2375    0.0000 N   0  0  0  0  0  0  0  0  0  0  0  0
    2.8579   -1.6500    0.0000 C   0  0  0  0  0  0  0  0  0  0  0  0
    2.8579   -2.4750    0.0000 O   0  0  0  0  0  0  0  0  0  0  0  0
    2.1434   -1.2375    0.0000 C   0  0  0  0  0  0  0  0  0  0  0  0
    1.4289   -1.6500    0.0000 C   0  0  0  0  0  0  0  0  0  0  0  0
    1.4289   -2.4750    0.0000 Cl  0  0  0  0  0  0  0  0  0  0  0  0
    0.7145   -1.2375    0.0000 C   0  0  0  0  0  0  0  0  0  0  0  0
    0.0000   -1.6500    0.0000 Br  0  0  0  0  0  0  0  0  0  0  0  0
    0.7145   -0.4125    0.0000 C   0  0  0  0  0  0  0  0  0  0  0  0
  1  2  1  0  0  0  0
  2  3  1  0  0  0  0
  3  4  1  0  0  0  0
  3  5  2  0  0  0  0
  2  6  1  0  0  0  0
  6  7  2  0  0  0  0
  7  8  1  0  0  0  0
  8  9  1  0  0  0  0
  8 10  2  0  0  0  0
 10 11  1  0  0  0  0
 11 12  2  0  0  0  0
  6 12  1  0  0  0  0
 10 13  1  0  0  0  0
 13 14  2  0  0  0  0
 14 15  1  0  0  0  0
 15 16  2  0  0  0  0
 16 17  1  0  0  0  0
 17 18  2  0  0  0  0
 18 19  1  0  0  0  0
 18 20  1  0  0  0  0
 14 20  1  0  0  0  0
 20 21  2  0  0  0  0
 21 22  1  0  0  0  0
 21 23  1  0  0  0  0
 23 24  1  0  0  0  0
 23 25  2  0  0  0  0
 13 25  1  0  0  0  0
M  END
> <ID>
CPD_5002

$$$$
CPD_5007
  Mrv1822 09091914012D          

 30 32  0  0  0  0            999 V2000
   -2.1434   -1.2375    0.0000 C   0  0  0  0  0  0  0  0  0  0  0  0
   -2.1434   -2.0625    0.0000 O   0  0  0  0  0  0  0  0  0  0  0  0
   -2.8579   -2.4750    0.0000 C   0  0  0  0  0  0  0  0  0  0  0  0
   -3.5724   -2.0625    0.0000 O   0  0  0  0  0  0  0  0  0  0  0  0
   -2.8579   -3.3000    0.0000 C   0  0  0  0  0  0  0  0  0  0  0  0
   -2.1434   -3.7125    0.0000 N   0  0  0  0  0  0  0  0  0  0  0  0
   -2.1434   -4.5375    0.0000 C   0  0  0  0  0  0  0  0  0  0  0  0
   -1.4289   -4.9500    0.0000 O   0  0  0  0  0  0  0  0  0  0  0  0
   -2.8579   -4.9500    0.0000 C   0  0  0  0  0  0  0  0  0  0  0  0
   -3.5724   -4.5375    0.0000 C   0  0  0  0  0  0  0  0  0  0  0  0
   -3.5724   -3.7125    0.0000 C   0  0  0  0  0  0  0  0  0  0  0  0
   -4.2868   -3.3000    0.0000 C   0  0  0  0  0  0  0  0  0  0  0  0
   -5.0013   -3.7125    0.0000 C   0  0  0  0  0  0  0  0  0  0  0  0
   -5.7158   -3.3000    0.0000 C   0  0  0  0  0  0  0  0  0  0  0  0
   -5.7158   -2.4750    0.0000 C   0  0  0  0  0  0  0  0  0  0  0  0
   -6.4302   -2.0625    0.0000 C   0  0  0  0  0  0  0  0  0  0  0  0
   -7.1447   -2.4750    0.0000 S   0  0  0  0  0  0  0  0  0  0  0  0
   -7.5572   -1.7605    0.0000 O   0  0  0  0  0  0  0  0  0  0  0  0
   -6.7322   -3.1895    0.0000 O   0  0  0  0  0  0  0  0  0  0  0  0
   -7.8592   -2.8875    0.0000 N   0  0  0  0  0  0  0  0  0  0  0  0
   -7.8592   -3.7125    0.0000 C   0  0  0  0  0  0  0  0  0  0  0  0
   -8.5737   -4.1250    0.0000 C   0  0  0  0  0  0  0  0  0  0  0  0
   -9.2881   -3.7125    0.0000 C   0  0  0  0  0  0  0  0  0  0  0  0
   -9.2881   -2.8875    0.0000 C   0  0  0  0  0  0  0  0  0  0  0  0
   -8.5737   -2.4750    0.0000 C   0  0  0  0  0  0  0  0  0  0  0  0
  -10.0026   -2.4750    0.0000 C   0  0  0  0  0  0  0  0  0  0  0  0
  -10.7171   -2.8875    0.0000 O   0  0  0  0  0  0  0  0  0  0  0  0
  -10.0026   -1.6500    0.0000 O   0  0  0  0  0  0  0  0  0  0  0  0
   -5.0013   -2.0625    0.0000 C   0  0  0  0  0  0  0  0  0  0  0  0
   -4.2868   -2.4750    0.0000 C   0  0  0  0  0  0  0  0  0  0  0  0
  1  2  1  0  0  0  0
  2  3  1  0  0  0  0
  3  4  2  0  0  0  0
  3  5  1  0  0  0  0
  5  6  2  0  0  0  0
  6  7  1  0  0  0  0
  7  8  1  0  0  0  0
  7  9  2  0  0  0  0
  9 10  1  0  0  0  0
 10 11  2  0  0  0  0
  5 11  1  0  0  0  0
 11 12  1  0  0  0  0
 12 13  2  0  0  0  0
 13 14  1  0  0  0  0
 14 15  2  0  0  0  0
 15 16  1  0  0  0  0
 16 17  1  0  0  0  0
 17 18  2  0  0  0  0
 17 19  2  0  0  0  0
 17 20  1  0  0  0  0
 20 21  1  0  0  0  0
 21 22  1  0  0  0  0
 22 23  1  0  0  0  0
 23 24  1  0  0  0  0
 24 25  1  0  0  0  0
 20 25  1  0  0  0  0
 24 26  1  0  0  0  0
 26 27  1  0  0  0  0
 26 28  2  0  0  0  0
 15 29  1  0  0  0  0
 29 30  2  0  0  0  0
 12 30  1  0  0  0  0
M  END
> <ID>
CPD_5007

$$$$
CPD_5012
  Mrv1822 09091914012D          

 31 34  0  0  0  0            999 V2000
   -2.8579    4.1250    0.0000 O   0  0  0  0  0  0  0  0  0  0  0  0
   -2.1434    3.7125    0.0000 C   0  0  0  0  0  0  0  0  0  0  0  0
   -2.1434    2.8875    0.0000 O   0  0  0  0  0  0  0  0  0  0  0  0
   -1.4289    4.1250    0.0000 C   0  0  0  0  0  0  0  0  0  0  0  0
   -1.4289    4.9500    0.0000 C   0  0  0  0  0  0  0  0  0  0  0  0
   -0.7145    5.3625    0.0000 C   0  0  0  0  0  0  0  0  0  0  0  0
   -0.0000    4.9500    0.0000 C   0  0  0  0  0  0  0  0  0  0  0  0
   -0.0000    4.1250    0.0000 N   0  0  0  0  0  0  0  0  0  0  0  0
   -0.7145    3.7125    0.0000 C   0  0  0  0  0  0  0  0  0  0  0  0
    0.7145    3.7125    0.0000 S   0  0  0  0  0  0  0  0  0  0  0  0
    0.3020    2.9980    0.0000 O   0  0  0  0  0  0  0  0  0  0  0  0
    1.1270    4.4270    0.0000 O   0  0  0  0  0  0  0  0  0  0  0  0
    1.4289    3.3000    0.0000 C   0  0  0  0  0  0  0  0  0  0  0  0
    1.4289    2.4750    0.0000 C   0  0  0  0  0  0  0  0  0  0  0  0
    2.1434    2.0625    0.0000 C   0  0  0  0  0  0  0  0  0  0  0  0
    2.1434    1.2375    0.0000 C   0  0  0  0  0  0  0  0  0  0  0  0
    1.4289    0.8250    0.0000 C   0  0  0  0  0  0  0  0  0  0  0  0
    0.7145    1.2375    0.0000 C   0  0  0  0  0  0  0  0  0  0  0  0
    0.7145    2.0625    0.0000 C   0  0  0  0  0  0  0  0  0  0  0  0
    1.4289    0.0000    0.0000 C   0  0  0  0  0  0  0  0  0  0  0  0
    2.1434   -0.4125    0.0000 C   0  0  0  0  0  0  0  0  0  0  0  0
    2.8579    0.0000    0.0000 N   0  0  0  0  0  0  0  0  0  0  0  0
    3.5724   -0.4125    0.0000 C   0  0  0  0  0  0  0  0  0  0  0  0
    3.5724   -1.2375    0.0000 C   0  0  0  0  0  0  0  0  0  0  0  0
    2.8579   -1.6500    0.0000 C   0  0  0  0  0  0  0  0  0  0  0  0
    2.8579   -2.4750    0.0000 O   0  0  0  0  0  0  0  0  0  0  0  0
    2.1434   -1.2375    0.0000 C   0  0  0  0  0  0  0  0  0  0  0  0
    1.4289   -1.6500    0.0000 C   0  0  0  0  0  0  0  0  0  0  0  0
    1.4289   -2.4750    0.0000 F   0  0  0  0  0  0  0  0  0  0  0  0
    0.7145   -1.2375    0.0000 C   0  0  0  0  0  0  0  0  0  0  0  0
    0.7145   -0.4125    0.0000 C   0  0  0  0  0  0  0  0  0  0  0  0
  1  2  1  0  0  0  0
  2  3  2  0  0  0  0
  2  4  1  0  0  0  0
  4  5  1  0  0  0  0
  5  6  1  0  0  0  0
  6  7  1  0  0  0  0
  7  8  1  0  0  0  0
  8  9  1  0  0  0  0
  4  9  1  0  0  0  0
  8 10  1  0  0  0  0
 10 11  2  0  0  0  0
 10 12  2  0  0  0  0
 10 13  1  0  0  0  0
 13 14  1  0  0  0  0
 14 15  2  0  0  0  0
 15 16  1  0  0  0  0
 16 17  2  0  0  0  0
 17 18  1  0  0  0  0
 18 19  2  0  0  0  0
 14 19  1  0  0  0  0
 17 20  1  0  0  0  0
 20 21  2  0  0  0  0
 21 22  1  0  0  0  0
 22 23  2  0  0  0  0
 23 24  1  0  0  0  0
 24 25  2  0  0  0  0
 25 26  1  0  0  0  0
 25 27  1  0  0  0  0
 21 27  1  0  0  0  0
 27 28  2  0  0  0  0
 28 29  1  0  0  0  0
 28 30  1  0  0  0  0
 30 31  2  0  0  0  0
 20 31  1  0  0  0  0
M  END
> <ID>
CPD_5012

$$$$
CPD_5017
  Mrv1822 09091914012D          

 30 32  0  0  0  0            999 V2000
    5.3033    1.0632    0.0000 C   0  0  0  0  0  0  0  0  0  0  0  0
    4.5888    0.6507    0.0000 O   0  0  0  0  0  0  0  0  0  0  0  0
    3.8743    1.0632    0.0000 C   0  0  0  0  0  0  0  0  0  0  0  0
    3.1599    0.6507    0.0000 C   0  0  0  0  0  0  0  0  0  0  0  0
    2.4454    1.0632    0.0000 C   0  0  0  0  0  0  0  0  0  0  0  0
    2.4454    1.8882    0.0000 C   0  0  0  0  0  0  0  0  0  0  0  0
    1.7309    2.3007    0.0000 C   0  0  0  0  0  0  0  0  0  0  0  0
    1.0164    1.8882    0.0000 C   0  0  0  0  0  0  0  0  0  0  0  0
    0.3020    2.3007    0.0000 C   0  0  0  0  0  0  0  0  0  0  0  0
   -0.4125    1.8882    0.0000 F   0  0  0  0  0  0  0  0  0  0  0  0
    0.3020    3.1257    0.0000 C   0  0  0  0  0  0  0  0  0  0  0  0
    1.0164    3.5382    0.0000 C   0  0  0  0  0  0  0  0  0  0  0  0
    1.7309    3.1257    0.0000 C   0  0  0  0  0  0  0  0  0  0  0  0
   -0.4125    3.5382    0.0000 C   0  0  0  0  0  0  0  0  0  0  0  0
   -0.4125    4.3632    0.0000 O   0  0  0  0  0  0  0  0  0  0  0  0
   -1.1270    3.1257    0.0000 N   0  0  0  0  0  0  0  0  0  0  0  0
   -1.1270    2.3007    0.0000 C   0  0  0  0  0  0  0  0  0  0  0  0
   -0.7145    1.5862    0.0000 C   0  0  0  0  0  0  0  0  0  0  0  0
   -1.5395    1.5862    0.0000 C   0  0  0  0  0  0  0  0  0  0  0  0
    3.1599    2.3007    0.0000 C   0  0  0  0  0  0  0  0  0  0  0  0
    3.8743    1.8882    0.0000 C   0  0  0  0  0  0  0  0  0  0  0  0
    3.1599    3.1257    0.0000 N   0  0  0  0  0  0  0  0  0  0  0  0
    2.4454    3.5382    0.0000 C   0  0  0  0  0  0  0  0  0  0  0  0
    2.4454    4.3632    0.0000 C   0  0  0  0  0  0  0  0  0  0  0  0
    3.1599    4.7757    0.0000 O   0  0  0  0  0  0  0  0  0  0  0  0
    1.7309    4.7757    0.0000 O   0  0  0  0  0  0  0  0  0  0  0  0
    3.8743    3.5382    0.0000 S   0  0  0  0  0  0  0  0  0  0  0  0
    3.4618    4.2526    0.0000 C   0  0  0  0  0  0  0  0  0  0  0  0
    4.5888    3.9507    0.0000 O   0  0  0  0  0  0  0  0  0  0  0  0
    4.2868    2.8237    0.0000 O   0  0  0  0  0  0  0  0  0  0  0  0
  1  2  1  0  0  0  0
  2  3  1  0  0  0  0
  3  4  2  0  0  0  0
  4  5  1  0  0  0  0
  5  6  2  0  0  0  0
  6  7  1  0  0  0  0
  7  8  2  0  0  0  0
  8  9  1  0  0  0  0
  9 10  1  0  0  0  0
  9 11  2  0  0  0  0
 11 12  1  0  0  0  0
 12 13  2  0  0  0  0
  7 13  1  0  0  0  0
 11 14  1  0  0  0  0
 14 15  2  0  0  0  0
 14 16  1  0  0  0  0
 16 17  1  0  0  0  0
 17 18  1  0  0  0  0
 18 19  1  0  0  0  0
 17 19  1  0  0  0  0
  6 20  1  0  0  0  0
 20 21  2  0  0  0  0
  3 21  1  0  0  0  0
 20 22  1  0  0  0  0
 22 23  1  0  0  0  0
 23 24  1  0  0  0  0
 24 25  1  0  0  0  0
 24 26  2  0  0  0  0
 22 27  1  0  0  0  0
 27 28  1  0  0  0  0
 27 29  2  0  0  0  0
 27 30  2  0  0  0  0
M  END
> <ID>
CPD_5017

$$$$
CPD_5022
  Mrv1822 09091914012D          

 30 32  0  0  0  0            999 V2000
   -0.7145   -1.2375    0.0000 C   0  0  0  0  0  0  0  0  0  0  0  0
    0.0000   -1.6500    0.0000 O   0  0  0  0  0  0  0  0  0  0  0  0
    0.0000   -2.4750    0.0000 C   0  0  0  0  0  0  0  0  0  0  0  0
    0.7145   -2.8875    0.0000 C   0  0  0  0  0  0  0  0  0  0  0  0
    0.7145   -3.7125    0.0000 C   0  0  0  0  0  0  0  0  0  0  0  0
    0.0000   -4.1250    0.0000 C   0  0  0  0  0  0  0  0  0  0  0  0
   -0.7145   -3.7125    0.0000 C   0  0  0  0  0  0  0  0  0  0  0  0
   -0.7145   -2.8875    0.0000 C   0  0  0  0  0  0  0  0  0  0  0  0
   -1.4289   -4.1250    0.0000 N   0  0  0  0  0  0  0  0  0  0  0  0
   -1.4289   -4.9500    0.0000 C   0  0  0  0  0  0  0  0  0  0  0  0
   -2.1434   -5.3625    0.0000 C   0  0  0  0  0  0  0  0  0  0  0  0
   -2.8579   -4.9500    0.0000 O   0  0  0  0  0  0  0  0  0  0  0  0
   -2.1434   -6.1875    0.0000 O   0  0  0  0  0  0  0  0  0  0  0  0
   -2.1434   -3.7125    0.0000 S   0  0  0  0  0  0  0  0  0  0  0  0
   -2.5559   -4.4270    0.0000 C   0  0  0  0  0  0  0  0  0  0  0  0
   -2.8579   -3.3000    0.0000 O   0  0  0  0  0  0  0  0  0  0  0  0
   -1.7309   -2.9980    0.0000 O   0  0  0  0  0  0  0  0  0  0  0  0
    0.0000   -4.9500    0.0000 C   0  0  0  0  0  0  0  0  0  0  0  0
    0.7145   -5.3625    0.0000 C   0  0  0  0  0  0  0  0  0  0  0  0
    1.4289   -4.9500    0.0000 C   0  0  0  0  0  0  0  0  0  0  0  0
    2.1434   -5.3625    0.0000 C   0  0  0  0  0  0  0  0  0  0  0  0
    2.8579   -4.9500    0.0000 C   0  0  0  0  0  0  0  0  0  0  0  0
    3.5724   -5.3625    0.0000 C   0  0  0  0  0  0  0  0  0  0  0  0
    3.5724   -6.1875    0.0000 C   0  0  0  0  0  0  0  0  0  0  0  0
    2.8579   -6.6000    0.0000 N   0  0  0  0  0  0  0  0  0  0  0  0
    2.1434   -6.1875    0.0000 C   0  0  0  0  0  0  0  0  0  0  0  0
    0.7145   -6.1875    0.0000 C   0  0  0  0  0  0  0  0  0  0  0  0
    0.0000   -6.6000    0.0000 C   0  0  0  0  0  0  0  0  0  0  0  0
   -0.7145   -6.1875    0.0000 C   0  0  0  0  0  0  0  0  0  0  0  0
   -0.7145   -5.3625    0.0000 C   0  0  0  0  0  0  0  0  0  0  0  0
  1  2  1  0  0  0  0
  2  3  1  0  0  0  0
  3  4  2  0  0  0  0
  4  5  1  0  0  0  0
  5  6  2  0  0  0  0
  6  7  1  0  0  0  0
  7  8  2  0  0  0  0
  3  8  1  0  0  0  0
  7  9  1  0  0  0  0
  9 10  1  0  0  0  0
 10 11  1  0  0  0  0
 11 12  1  0  0  0  0
 11 13  2  0  0  0  0
  9 14  1  0  0  0  0
 14 15  1  0  0  0  0
 14 16  2  0  0  0  0
 14 17  2  0  0  0  0
  6 18  1  0  0  0  0
 18 19  2  0  0  0  0
 19 20  1  0  0  0  0
 20 21  1  0  0  0  0
 21 22  1  0  0  0  0
 22 23  1  0  0  0  0
 23 24  1  0  0  0  0
 24 25  1  0  0  0  0
 25 26  1  0  0  0  0
 21 26  1  0  0  0  0
 19 27  1  0  0  0  0
 27 28  2  0  0  0  0
 28 29  1  0  0  0  0
 29 30  2  0  0  0  0
 18 30  1  0  0  0  0
M  END
> <ID>
CPD_5022

$$$$
CPD_5027
  Mrv1822 09091914012D          

 28 30  0  0  0  0            999 V2000
   -0.1428   -5.0004    0.0000 C   0  0  0  0  0  0  0  0  0  0  0  0
    0.6641   -4.8289    0.0000 O   0  0  0  0  0  0  0  0  0  0  0  0
    0.9191   -4.0442    0.0000 C   0  0  0  0  0  0  0  0  0  0  0  0
    0.3670   -3.4311    0.0000 C   0  0  0  0  0  0  0  0  0  0  0  0
    0.6220   -2.6465    0.0000 C   0  0  0  0  0  0  0  0  0  0  0  0
    1.4289   -2.4750    0.0000 C   0  0  0  0  0  0  0  0  0  0  0  0
    1.9810   -3.0881    0.0000 C   0  0  0  0  0  0  0  0  0  0  0  0
    1.7260   -3.8727    0.0000 C   0  0  0  0  0  0  0  0  0  0  0  0
    2.7879   -2.9166    0.0000 N   0  0  0  0  0  0  0  0  0  0  0  0
    3.3400   -3.5297    0.0000 C   0  0  0  0  0  0  0  0  0  0  0  0
    3.0850   -4.3143    0.0000 C   0  0  0  0  0  0  0  0  0  0  0  0
    2.2781   -4.4858    0.0000 O   0  0  0  0  0  0  0  0  0  0  0  0
    3.6371   -4.9274    0.0000 O   0  0  0  0  0  0  0  0  0  0  0  0
    3.0429   -2.1319    0.0000 S   0  0  0  0  0  0  0  0  0  0  0  0
    3.2978   -1.3473    0.0000 C   0  0  0  0  0  0  0  0  0  0  0  0
    3.8275   -2.3869    0.0000 O   0  0  0  0  0  0  0  0  0  0  0  0
    2.2583   -1.8770    0.0000 O   0  0  0  0  0  0  0  0  0  0  0  0
    1.4289   -1.6500    0.0000 C   0  0  0  0  0  0  0  0  0  0  0  0
    0.7145   -1.2375    0.0000 C   0  0  0  0  0  0  0  0  0  0  0  0
    0.0000   -1.6500    0.0000 Cl  0  0  0  0  0  0  0  0  0  0  0  0
    0.7145   -0.4125    0.0000 C   0  0  0  0  0  0  0  0  0  0  0  0
    1.4289    0.0000    0.0000 N   0  0  0  0  0  0  0  0  0  0  0  0
    2.1434   -0.4125    0.0000 C   0  0  0  0  0  0  0  0  0  0  0  0
    2.8579    0.0000    0.0000 C   0  0  0  0  0  0  0  0  0  0  0  0
    3.5724   -0.4125    0.0000 C   0  0  0  0  0  0  0  0  0  0  0  0
    3.5724   -1.2375    0.0000 C   0  0  0  0  0  0  0  0  0  0  0  0
    2.8579   -1.6500    0.0000 C   0  0  0  0  0  0  0  0  0  0  0  0
    2.1434   -1.2375    0.0000 C   0  0  0  0  0  0  0  0  0  0  0  0
  1  2  1  0  0  0  0
  2  3  1  0  0  0  0
  3  4  2  0  0  0  0
  4  5  1  0  0  0  0
  5  6  2  0  0  0  0
  6  7  1  0  0  0  0
  7  8  2  0  0  0  0
  3  8  1  0  0  0  0
  7  9  1  0  0  0  0
  9 10  1  0  0  0  0
 10 11  1  0  0  0  0
 11 12  1  0  0  0  0
 11 13  2  0  0  0  0
  9 14  1  0  0  0  0
 14 15  1  0  0  0  0
 14 16  2  0  0  0  0
 14 17  2  0  0  0  0
  6 18  1  0  0  0  0
 18 19  2  0  0  0  0
 19 20  1  0  0  0  0
 19 21  1  0  0  0  0
 21 22  2  0  0  0  0
 22 23  1  0  0  0  0
 23 24  2  0  0  0  0
 24 25  1  0  0  0  0
 25 26  2  0  0  0  0
 26 27  1  0  0  0  0
 27 28  2  0  0  0  0
 18 28  1  0  0  0  0
 23 28  1  0  0  0  0
M  END
> <ID>
CPD_5027

$$$$
CPD_5032
  Mrv1822 09091914012D          

 27 28  0  0  0  0            999 V2000
    1.4289   -6.6000    0.0000 C   0  0  0  0  0  0  0  0  0  0  0  0
    2.1434   -6.1875    0.0000 C   0  0  0  0  0  0  0  0  0  0  0  0
    2.8579   -6.6000    0.0000 O   0  0  0  0  0  0  0  0  0  0  0  0
    3.5724   -6.1875    0.0000 C   0  0  0  0  0  0  0  0  0  0  0  0
    3.5724   -5.3625    0.0000 O   0  0  0  0  0  0  0  0  0  0  0  0
    4.2868   -6.6000    0.0000 C   0  0  0  0  0  0  0  0  0  0  0  0
    5.0013   -6.1875    0.0000 C   0  0  0  0  0  0  0  0  0  0  0  0
    5.0013   -5.3625    0.0000 N   0  0  0  0  0  0  0  0  0  0  0  0
    5.7158   -6.6000    0.0000 C   0  0  0  0  0  0  0  0  0  0  0  0
    6.4302   -6.1875    0.0000 C   0  0  0  0  0  0  0  0  0  0  0  0
    7.1447   -6.6000    0.0000 C   0  0  0  0  0  0  0  0  0  0  0  0
    7.1447   -7.4250    0.0000 C   0  0  0  0  0  0  0  0  0  0  0  0
    6.4302   -7.8375    0.0000 C   0  0  0  0  0  0  0  0  0  0  0  0
    5.7158   -7.4250    0.0000 C   0  0  0  0  0  0  0  0  0  0  0  0
    5.0013   -7.8375    0.0000 C   0  0  0  0  0  0  0  0  0  0  0  0
    7.8592   -7.8375    0.0000 C   0  0  0  0  0  0  0  0  0  0  0  0
    8.5737   -7.4250    0.0000 N   0  0  0  0  0  0  0  0  0  0  0  0
    9.2881   -7.8375    0.0000 C   0  0  0  0  0  0  0  0  0  0  0  0
   10.0026   -7.4250    0.0000 O   0  0  0  0  0  0  0  0  0  0  0  0
   10.7171   -7.8375    0.0000 C   0  0  0  0  0  0  0  0  0  0  0  0
    9.2881   -8.6625    0.0000 C   0  0  0  0  0  0  0  0  0  0  0  0
    8.5737   -9.0750    0.0000 C   0  0  0  0  0  0  0  0  0  0  0  0
    7.8592   -8.6625    0.0000 C   0  0  0  0  0  0  0  0  0  0  0  0
    8.5737   -9.9000    0.0000 C   0  0  0  0  0  0  0  0  0  0  0  0
    8.5737  -10.7250    0.0000 C   0  0  0  0  0  0  0  0  0  0  0  0
    7.7487   -9.9000    0.0000 C   0  0  0  0  0  0  0  0  0  0  0  0
    9.3987   -9.9000    0.0000 O   0  0  0  0  0  0  0  0  0  0  0  0
  1  2  1  0  0  0  0
  2  3  1  0  0  0  0
  3  4  1  0  0  0  0
  4  5  2  0  0  0  0
  4  6  1  0  0  0  0
  6  7  1  0  0  0  0
  7  8  1  0  0  0  0
  7  9  1  0  0  0  0
  9 10  2  0  0  0  0
 10 11  1  0  0  0  0
 11 12  2  0  0  0  0
 12 13  1  0  0  0  0
 13 14  2  0  0  0  0
  9 14  1  0  0  0  0
 14 15  1  0  0  0  0
 12 16  1  0  0  0  0
 16 17  2  0  0  0  0
 17 18  1  0  0  0  0
 18 19  1  0  0  0  0
 19 20  1  0  0  0  0
 18 21  2  0  0  0  0
 21 22  1  0  0  0  0
 22 23  2  0  0  0  0
 16 23  1  0  0  0  0
 22 24  1  0  0  0  0
 24 25  1  0  0  0  0
 24 26  1  0  0  0  0
 24 27  1  0  0  0  0
M  END
> <ID>
CPD_5032

$$$$
CPD_5037
  Mrv1822 09091914012D          

 29 31  0  0  0  0            999 V2000
   -4.6342   -4.3218    0.0000 C   0  0  0  0  0  0  0  0  0  0  0  0
   -3.8137   -4.2356    0.0000 O   0  0  0  0  0  0  0  0  0  0  0  0
   -3.4782   -3.4819    0.0000 C   0  0  0  0  0  0  0  0  0  0  0  0
   -2.6577   -3.3957    0.0000 C   0  0  0  0  0  0  0  0  0  0  0  0
   -2.3221   -2.6420    0.0000 C   0  0  0  0  0  0  0  0  0  0  0  0
   -2.7346   -1.9275    0.0000 N   0  0  0  0  0  0  0  0  0  0  0  0
   -2.1826   -1.3144    0.0000 S   0  0  0  0  0  0  0  0  0  0  0  0
   -1.4289   -1.6500    0.0000 C   0  0  0  0  0  0  0  0  0  0  0  0
   -1.5152   -2.4705    0.0000 N   0  0  0  0  0  0  0  0  0  0  0  0
   -0.7145   -1.2375    0.0000 C   0  0  0  0  0  0  0  0  0  0  0  0
    0.0000   -1.6500    0.0000 C   0  0  0  0  0  0  0  0  0  0  0  0
    0.7145   -1.2375    0.0000 C   0  0  0  0  0  0  0  0  0  0  0  0
    0.7145   -0.4125    0.0000 C   0  0  0  0  0  0  0  0  0  0  0  0
    0.0000   -0.0000    0.0000 C   0  0  0  0  0  0  0  0  0  0  0  0
   -0.7145   -0.4125    0.0000 C   0  0  0  0  0  0  0  0  0  0  0  0
    1.4289   -0.0000    0.0000 N   0  0  0  0  0  0  0  0  0  0  0  0
    1.4289    0.8250    0.0000 C   0  0  0  0  0  0  0  0  0  0  0  0
    0.7145    1.2375    0.0000 O   0  0  0  0  0  0  0  0  0  0  0  0
    2.1434    1.2375    0.0000 O   0  0  0  0  0  0  0  0  0  0  0  0
    2.1434    2.0625    0.0000 C   0  0  0  0  0  0  0  0  0  0  0  0
    2.1434    2.8875    0.0000 C   0  0  0  0  0  0  0  0  0  0  0  0
    2.9684    2.0625    0.0000 C   0  0  0  0  0  0  0  0  0  0  0  0
    1.3184    2.0625    0.0000 C   0  0  0  0  0  0  0  0  0  0  0  0
    2.1434   -0.4125    0.0000 C   0  0  0  0  0  0  0  0  0  0  0  0
    2.4256    0.3627    0.0000 C   0  0  0  0  0  0  0  0  0  0  0  0
    2.9559   -0.5558    0.0000 C   0  0  0  0  0  0  0  0  0  0  0  0
    2.1434   -1.2375    0.0000 C   0  0  0  0  0  0  0  0  0  0  0  0
    1.4289   -1.6500    0.0000 C   0  0  0  0  0  0  0  0  0  0  0  0
    1.4289   -2.4750    0.0000 C   0  0  0  0  0  0  0  0  0  0  0  0
  1  2  1  0  0  0  0
  2  3  1  0  0  0  0
  3  4  1  0  0  0  0
  4  5  1  0  0  0  0
  5  6  2  0  0  0  0
  6  7  1  0  0  0  0
  7  8  1  0  0  0  0
  8  9  2  0  0  0  0
  5  9  1  0  0  0  0
  8 10  1  0  0  0  0
 10 11  2  0  0  0  0
 11 12  1  0  0  0  0
 12 13  2  0  0  0  0
 13 14  1  0  0  0  0
 14 15  2  0  0  0  0
 10 15  1  0  0  0  0
 13 16  1  0  0  0  0
 16 17  1  0  0  0  0
 17 18  2  0  0  0  0
 17 19  1  0  0  0  0
 19 20  1  0  0  0  0
 20 21  1  0  0  0  0
 20 22  1  0  0  0  0
 20 23  1  0  0  0  0
 16 24  1  0  0  0  0
 24 25  1  0  0  0  0
 24 26  1  0  0  0  0
 24 27  1  0  0  0  0
 27 28  2  0  0  0  0
 12 28  1  0  0  0  0
 28 29  1  0  0  0  0
M  END
> <ID>
CPD_5037

$$$$
CPD_5042
  Mrv1822 09091914012D          

 27 29  0  0  0  0            999 V2000
   -3.5724   -1.2375    0.0000 C   0  0  0  0  0  0  0  0  0  0  0  0
   -2.8579   -1.6500    0.0000 C   0  0  0  0  0  0  0  0  0  0  0  0
   -2.1434   -1.2375    0.0000 N   0  0  0  0  0  0  0  0  0  0  0  0
   -1.4289   -1.6500    0.0000 C   0  0  0  0  0  0  0  0  0  0  0  0
   -1.4289   -2.4750    0.0000 C   0  0  0  0  0  0  0  0  0  0  0  0
   -2.1434   -2.8875    0.0000 C   0  0  0  0  0  0  0  0  0  0  0  0
   -2.8579   -2.4750    0.0000 N   0  0  0  0  0  0  0  0  0  0  0  0
   -0.7145   -1.2375    0.0000 C   0  0  0  0  0  0  0  0  0  0  0  0
    0.0000   -1.6500    0.0000 C   0  0  0  0  0  0  0  0  0  0  0  0
    0.7145   -1.2375    0.0000 C   0  0  0  0  0  0  0  0  0  0  0  0
    0.7145   -0.4125    0.0000 C   0  0  0  0  0  0  0  0  0  0  0  0
    0.0000   -0.0000    0.0000 C   0  0  0  0  0  0  0  0  0  0  0  0
   -0.7145   -0.4125    0.0000 C   0  0  0  0  0  0  0  0  0  0  0  0
    1.4289   -0.0000    0.0000 N   0  0  0  0  0  0  0  0  0  0  0  0
    1.4289    0.8250    0.0000 C   0  0  0  0  0  0  0  0  0  0  0  0
    0.7145    1.2375    0.0000 O   0  0  0  0  0  0  0  0  0  0  0  0
    2.1434    1.2375    0.0000 O   0  0  0  0  0  0  0  0  0  0  0  0
    2.1434    2.0625    0.0000 C   0  0  0  0  0  0  0  0  0  0  0  0
    2.1434    2.8875    0.0000 C   0  0  0  0  0  0  0  0  0  0  0  0
    2.9684    2.0625    0.0000 C   0  0  0  0  0  0  0  0  0  0  0  0
    1.3184    2.0625    0.0000 C   0  0  0  0  0  0  0  0  0  0  0  0
    2.1434   -0.4125    0.0000 C   0  0  0  0  0  0  0  0  0  0  0  0
    2.4256    0.3627    0.0000 C   0  0  0  0  0  0  0  0  0  0  0  0
    2.9559   -0.5558    0.0000 C   0  0  0  0  0  0  0  0  0  0  0  0
    2.1434   -1.2375    0.0000 C   0  0  0  0  0  0  0  0  0  0  0  0
    1.4289   -1.6500    0.0000 C   0  0  0  0  0  0  0  0  0  0  0  0
    1.4289   -2.4750    0.0000 C   0  0  0  0  0  0  0  0  0  0  0  0
  1  2  1  0  0  0  0
  2  3  2  0  0  0  0
  3  4  1  0  0  0  0
  4  5  2  0  0  0  0
  5  6  1  0  0  0  0
  6  7  2  0  0  0  0
  2  7  1  0  0  0  0
  4  8  1  0  0  0  0
  8  9  2  0  0  0  0
  9 10  1  0  0  0  0
 10 11  2  0  0  0  0
 11 12  1  0  0  0  0
 12 13  2  0  0  0  0
  8 13  1  0  0  0  0
 11 14  1  0  0  0  0
 14 15  1  0  0  0  0
 15 16  2  0  0  0  0
 15 17  1  0  0  0  0
 17 18  1  0  0  0  0
 18 19  1  0  0  0  0
 18 20  1  0  0  0  0
 18 21  1  0  0  0  0
 14 22  1  0  0  0  0
 22 23  1  0  0  0  0
 22 24  1  0  0  0  0
 22 25  1  0  0  0  0
 25 26  2  0  0  0  0
 10 26  1  0  0  0  0
 26 27  1  0  0  0  0
M  END
> <ID>
CPD_5042

$$$$
CPD_5047
  Mrv1822 09091914012D          

 34 37  0  0  0  0            999 V2000
   -1.8414   -1.7605    0.0000 C   0  0  0  0  0  0  0  0  0  0  0  0
   -1.4289   -2.4750    0.0000 O   0  0  0  0  0  0  0  0  0  0  0  0
   -0.6039   -2.4750    0.0000 C   0  0  0  0  0  0  0  0  0  0  0  0
   -0.1914   -1.7605    0.0000 O   0  0  0  0  0  0  0  0  0  0  0  0
   -0.1914   -3.1895    0.0000 C   0  0  0  0  0  0  0  0  0  0  0  0
    0.6336   -3.1895    0.0000 N   0  0  0  0  0  0  0  0  0  0  0  0
    1.0461   -3.9039    0.0000 C   0  0  0  0  0  0  0  0  0  0  0  0
    0.6336   -4.6184    0.0000 C   0  0  0  0  0  0  0  0  0  0  0  0
    1.0461   -5.3329    0.0000 C   0  0  0  0  0  0  0  0  0  0  0  0
    1.8711   -5.3329    0.0000 C   0  0  0  0  0  0  0  0  0  0  0  0
    2.2836   -4.6184    0.0000 C   0  0  0  0  0  0  0  0  0  0  0  0
    1.8711   -3.9039    0.0000 C   0  0  0  0  0  0  0  0  0  0  0  0
    3.1086   -4.6184    0.0000 C   0  0  0  0  0  0  0  0  0  0  0  0
    3.5211   -3.9039    0.0000 N   0  0  0  0  0  0  0  0  0  0  0  0
    4.3461   -3.9039    0.0000 C   0  0  0  0  0  0  0  0  0  0  0  0
    4.7586   -4.6184    0.0000 N   0  0  0  0  0  0  0  0  0  0  0  0
    4.3461   -5.3329    0.0000 C   0  0  0  0  0  0  0  0  0  0  0  0
    4.7586   -6.0474    0.0000 N   0  0  0  0  0  0  0  0  0  0  0  0
    3.5211   -5.3329    0.0000 N   0  0  0  0  0  0  0  0  0  0  0  0
    4.7586   -3.1895    0.0000 N   0  0  0  0  0  0  0  0  0  0  0  0
    4.4230   -2.4358    0.0000 C   0  0  0  0  0  0  0  0  0  0  0  0
    5.0361   -1.8838    0.0000 C   0  0  0  0  0  0  0  0  0  0  0  0
    5.7506   -2.2963    0.0000 C   0  0  0  0  0  0  0  0  0  0  0  0
    5.5790   -3.1032    0.0000 C   0  0  0  0  0  0  0  0  0  0  0  0
    1.0461   -2.4750    0.0000 S   0  0  0  0  0  0  0  0  0  0  0  0
    1.7605   -2.8875    0.0000 O   0  0  0  0  0  0  0  0  0  0  0  0
    0.3316   -2.0625    0.0000 O   0  0  0  0  0  0  0  0  0  0  0  0
    1.4586   -1.7605    0.0000 C   0  0  0  0  0  0  0  0  0  0  0  0
    1.0461   -1.0461    0.0000 C   0  0  0  0  0  0  0  0  0  0  0  0
    1.4586   -0.3316    0.0000 C   0  0  0  0  0  0  0  0  0  0  0  0
    2.2836   -0.3316    0.0000 C   0  0  0  0  0  0  0  0  0  0  0  0
    2.6961    0.3829    0.0000 C   0  0  0  0  0  0  0  0  0  0  0  0
    2.6961   -1.0461    0.0000 C   0  0  0  0  0  0  0  0  0  0  0  0
    2.2836   -1.7605    0.0000 C   0  0  0  0  0  0  0  0  0  0  0  0
  1  2  1  0  0  0  0
  2  3  1  0  0  0  0
  3  4  2  0  0  0  0
  3  5  1  0  0  0  0
  5  6  1  0  0  0  0
  6  7  1  0  0  0  0
  7  8  2  0  0  0  0
  8  9  1  0  0  0  0
  9 10  2  0  0  0  0
 10 11  1  0  0  0  0
 11 12  2  0  0  0  0
  7 12  1  0  0  0  0
 11 13  1  0  0  0  0
 13 14  2  0  0  0  0
 14 15  1  0  0  0  0
 15 16  2  0  0  0  0
 16 17  1  0  0  0  0
 17 18  1  0  0  0  0
 17 19  2  0  0  0  0
 13 19  1  0  0  0  0
 15 20  1  0  0  0  0
 20 21  1  0  0  0  0
 21 22  1  0  0  0  0
 22 23  1  0  0  0  0
 23 24  1  0  0  0  0
 20 24  1  0  0  0  0
  6 25  1  0  0  0  0
 25 26  2  0  0  0  0
 25 27  2  0  0  0  0
 25 28  1  0  0  0  0
 28 29  2  0  0  0  0
 29 30  1  0  0  0  0
 30 31  2  0  0  0  0
 31 32  1  0  0  0  0
 31 33  1  0  0  0  0
 33 34  2  0  0  0  0
 28 34  1  0  0  0  0
M  END
> <ID>
CPD_5047

$$$$
CPD_5052
  Mrv1822 09091914012D          

 28 30  0  0  0  0            999 V2000
   -1.8414   -1.7605    0.0000 C   0  0  0  0  0  0  0  0  0  0  0  0
   -1.4289   -2.4750    0.0000 O   0  0  0  0  0  0  0  0  0  0  0  0
   -0.6039   -2.4750    0.0000 C   0  0  0  0  0  0  0  0  0  0  0  0
   -0.1914   -1.7605    0.0000 O   0  0  0  0  0  0  0  0  0  0  0  0
   -0.1914   -3.1895    0.0000 C   0  0  0  0  0  0  0  0  0  0  0  0
    0.6336   -3.1895    0.0000 N   0  0  0  0  0  0  0  0  0  0  0  0
    1.0461   -3.9039    0.0000 C   0  0  0  0  0  0  0  0  0  0  0  0
    0.6336   -4.6184    0.0000 C   0  0  0  0  0  0  0  0  0  0  0  0
    1.0461   -5.3329    0.0000 C   0  0  0  0  0  0  0  0  0  0  0  0
    1.8711   -5.3329    0.0000 C   0  0  0  0  0  0  0  0  0  0  0  0
    2.2836   -4.6184    0.0000 C   0  0  0  0  0  0  0  0  0  0  0  0
    1.8711   -3.9039    0.0000 C   0  0  0  0  0  0  0  0  0  0  0  0
    3.1086   -4.6184    0.0000 C   0  0  0  0  0  0  0  0  0  0  0  0
    3.5935   -3.9510    0.0000 C   0  0  0  0  0  0  0  0  0  0  0  0
    4.3781   -4.2059    0.0000 C   0  0  0  0  0  0  0  0  0  0  0  0
    4.3781   -5.0309    0.0000 C   0  0  0  0  0  0  0  0  0  0  0  0
    5.0455   -5.5158    0.0000 F   0  0  0  0  0  0  0  0  0  0  0  0
    3.5935   -5.2859    0.0000 S   0  0  0  0  0  0  0  0  0  0  0  0
    1.0461   -2.4750    0.0000 S   0  0  0  0  0  0  0  0  0  0  0  0
    1.7605   -2.8875    0.0000 O   0  0  0  0  0  0  0  0  0  0  0  0
    0.3316   -2.0625    0.0000 O   0  0  0  0  0  0  0  0  0  0  0  0
    1.4586   -1.7605    0.0000 C   0  0  0  0  0  0  0  0  0  0  0  0
    1.0461   -1.0461    0.0000 C   0  0  0  0  0  0  0  0  0  0  0  0
    1.4586   -0.3316    0.0000 C   0  0  0  0  0  0  0  0  0  0  0  0
    2.2836   -0.3316    0.0000 C   0  0  0  0  0  0  0  0  0  0  0  0
    2.6961    0.3829    0.0000 C   0  0  0  0  0  0  0  0  0  0  0  0
    2.6961   -1.0461    0.0000 C   0  0  0  0  0  0  0  0  0  0  0  0
    2.2836   -1.7605    0.0000 C   0  0  0  0  0  0  0  0  0  0  0  0
  1  2  1  0  0  0  0
  2  3  1  0  0  0  0
  3  4  2  0  0  0  0
  3  5  1  0  0  0  0
  5  6  1  0  0  0  0
  6  7  1  0  0  0  0
  7  8  2  0  0  0  0
  8  9  1  0  0  0  0
  9 10  2  0  0  0  0
 10 11  1  0  0  0  0
 11 12  2  0  0  0  0
  7 12  1  0  0  0  0
 11 13  1  0  0  0  0
 13 14  2  0  0  0  0
 14 15  1  0  0  0  0
 15 16  2  0  0  0  0
 16 17  1  0  0  0  0
 16 18  1  0  0  0  0
 13 18  1  0  0  0  0
  6 19  1  0  0  0  0
 19 20  2  0  0  0  0
 19 21  2  0  0  0  0
 19 22  1  0  0  0  0
 22 23  2  0  0  0  0
 23 24  1  0  0  0  0
 24 25  2  0  0  0  0
 25 26  1  0  0  0  0
 25 27  1  0  0  0  0
 27 28  2  0  0  0  0
 22 28  1  0  0  0  0
M  END
> <ID>
CPD_5052

$$$$
CPD_5057
  Mrv1822 09091914012D          

 29 32  0  0  0  0            999 V2000
    0.0000   -2.4750    0.0000 C   0  0  0  0  0  0  0  0  0  0  0  0
    0.0000   -1.6500    0.0000 O   0  0  0  0  0  0  0  0  0  0  0  0
    0.7145   -1.2375    0.0000 C   0  0  0  0  0  0  0  0  0  0  0  0
    0.7145   -0.4125    0.0000 C   0  0  0  0  0  0  0  0  0  0  0  0
    1.4289    0.0000    0.0000 C   0  0  0  0  0  0  0  0  0  0  0  0
    2.1434   -0.4125    0.0000 C   0  0  0  0  0  0  0  0  0  0  0  0
    2.8579    0.0000    0.0000 C   0  0  0  0  0  0  0  0  0  0  0  0
    3.5724   -0.4125    0.0000 C   0  0  0  0  0  0  0  0  0  0  0  0
    3.5724   -1.2375    0.0000 C   0  0  0  0  0  0  0  0  0  0  0  0
    2.8579   -1.6500    0.0000 N   0  0  0  0  0  0  0  0  0  0  0  0
    2.1434   -1.2375    0.0000 C   0  0  0  0  0  0  0  0  0  0  0  0
    1.4289   -1.6500    0.0000 C   0  0  0  0  0  0  0  0  0  0  0  0
    4.2868   -0.0000    0.0000 C   0  0  0  0  0  0  0  0  0  0  0  0
    4.2868    0.8250    0.0000 C   0  0  0  0  0  0  0  0  0  0  0  0
    5.0013    1.2375    0.0000 C   0  0  0  0  0  0  0  0  0  0  0  0
    5.7158    0.8250    0.0000 C   0  0  0  0  0  0  0  0  0  0  0  0
    5.7158   -0.0000    0.0000 C   0  0  0  0  0  0  0  0  0  0  0  0
    6.4302   -0.4125    0.0000 Cl  0  0  0  0  0  0  0  0  0  0  0  0
    5.0013   -0.4125    0.0000 C   0  0  0  0  0  0  0  0  0  0  0  0
    3.5724    1.2375    0.0000 C   0  0  0  0  0  0  0  0  0  0  0  0
    3.5724    2.0625    0.0000 C   0  0  0  0  0  0  0  0  0  0  0  0
    2.8579    2.4750    0.0000 C   0  0  0  0  0  0  0  0  0  0  0  0
    2.8579    3.3000    0.0000 C   0  0  0  0  0  0  0  0  0  0  0  0
    3.5724    3.7125    0.0000 O   0  0  0  0  0  0  0  0  0  0  0  0
    2.1434    3.7125    0.0000 O   0  0  0  0  0  0  0  0  0  0  0  0
    2.1434    2.0625    0.0000 C   0  0  0  0  0  0  0  0  0  0  0  0
    1.4289    2.4750    0.0000 F   0  0  0  0  0  0  0  0  0  0  0  0
    2.1434    1.2375    0.0000 C   0  0  0  0  0  0  0  0  0  0  0  0
    2.8579    0.8250    0.0000 C   0  0  0  0  0  0  0  0  0  0  0  0
  1  2  1  0  0  0  0
  2  3  1  0  0  0  0
  3  4  2  0  0  0  0
  4  5  1  0  0  0  0
  5  6  2  0  0  0  0
  6  7  1  0  0  0  0
  7  8  2  0  0  0  0
  8  9  1  0  0  0  0
  9 10  2  0  0  0  0
 10 11  1  0  0  0  0
  6 11  1  0  0  0  0
 11 12  2  0  0  0  0
  3 12  1  0  0  0  0
  8 13  1  0  0  0  0
 13 14  2  0  0  0  0
 14 15  1  0  0  0  0
 15 16  2  0  0  0  0
 16 17  1  0  0  0  0
 17 18  1  0  0  0  0
 17 19  2  0  0  0  0
 13 19  1  0  0  0  0
 14 20  1  0  0  0  0
 20 21  2  0  0  0  0
 21 22  1  0  0  0  0
 22 23  1  0  0  0  0
 23 24  1  0  0  0  0
 23 25  2  0  0  0  0
 22 26  2  0  0  0  0
 26 27  1  0  0  0  0
 26 28  1  0  0  0  0
 28 29  2  0  0  0  0
 20 29  1  0  0  0  0
M  END
> <ID>
CPD_5057

$$$$
CPD_5062
  Mrv1822 09091914012D          

 35 38  0  0  0  0            999 V2000
   -2.8579   -0.0000    0.0000 C   0  0  0  0  0  0  0  0  0  0  0  0
   -2.1434   -0.4125    0.0000 C   0  0  0  0  0  0  0  0  0  0  0  0
   -2.1434   -1.2375    0.0000 O   0  0  0  0  0  0  0  0  0  0  0  0
   -1.4289   -1.6500    0.0000 C   0  0  0  0  0  0  0  0  0  0  0  0
   -0.7145   -1.2375    0.0000 O   0  0  0  0  0  0  0  0  0  0  0  0
   -1.4289   -2.4750    0.0000 N   0  0  0  0  0  0  0  0  0  0  0  0
   -0.7145   -2.8875    0.0000 C   0  0  0  0  0  0  0  0  0  0  0  0
   -0.7145   -3.7125    0.0000 C   0  0  0  0  0  0  0  0  0  0  0  0
   -1.4289   -4.1250    0.0000 N   0  0  0  0  0  0  0  0  0  0  0  0
   -2.1434   -3.7125    0.0000 C   0  0  0  0  0  0  0  0  0  0  0  0
   -2.1434   -2.8875    0.0000 C   0  0  0  0  0  0  0  0  0  0  0  0
   -1.4289   -4.9500    0.0000 C   0  0  0  0  0  0  0  0  0  0  0  0
   -2.1434   -5.3625    0.0000 C   0  0  0  0  0  0  0  0  0  0  0  0
   -2.1434   -6.1875    0.0000 C   0  0  0  0  0  0  0  0  0  0  0  0
   -1.4289   -6.6000    0.0000 C   0  0  0  0  0  0  0  0  0  0  0  0
   -0.7145   -6.1875    0.0000 C   0  0  0  0  0  0  0  0  0  0  0  0
   -0.7145   -5.3625    0.0000 C   0  0  0  0  0  0  0  0  0  0  0  0
   -0.0000   -4.9500    0.0000 N   0  0  0  0  0  0  0  0  0  0  0  0
   -2.8579   -4.9500    0.0000 C   0  0  0  0  0  0  0  0  0  0  0  0
   -3.5724   -5.3625    0.0000 C   0  0  0  0  0  0  0  0  0  0  0  0
   -4.2868   -4.9500    0.0000 C   0  0  0  0  0  0  0  0  0  0  0  0
   -4.2868   -4.1250    0.0000 C   0  0  0  0  0  0  0  0  0  0  0  0
   -3.5724   -3.7125    0.0000 C   0  0  0  0  0  0  0  0  0  0  0  0
   -3.5724   -2.8875    0.0000 Cl  0  0  0  0  0  0  0  0  0  0  0  0
   -2.8579   -4.1250    0.0000 C   0  0  0  0  0  0  0  0  0  0  0  0
   -3.5724   -6.1875    0.0000 C   0  0  0  0  0  0  0  0  0  0  0  0
   -2.8579   -6.6000    0.0000 C   0  0  0  0  0  0  0  0  0  0  0  0
   -2.8579   -7.4250    0.0000 C   0  0  0  0  0  0  0  0  0  0  0  0
   -2.1434   -7.8375    0.0000 C   0  0  0  0  0  0  0  0  0  0  0  0
   -1.4289   -7.4250    0.0000 O   0  0  0  0  0  0  0  0  0  0  0  0
   -2.1434   -8.6625    0.0000 O   0  0  0  0  0  0  0  0  0  0  0  0
   -3.5724   -7.8375    0.0000 C   0  0  0  0  0  0  0  0  0  0  0  0
   -3.5724   -8.6625    0.0000 F   0  0  0  0  0  0  0  0  0  0  0  0
   -4.2868   -7.4250    0.0000 C   0  0  0  0  0  0  0  0  0  0  0  0
   -4.2868   -6.6000    0.0000 C   0  0  0  0  0  0  0  0  0  0  0  0
  1  2  1  0  0  0  0
  2  3  1  0  0  0  0
  3  4  1  0  0  0  0
  4  5  2  0  0  0  0
  4  6  1  0  0  0  0
  6  7  1  0  0  0  0
  7  8  1  0  0  0  0
  8  9  1  0  0  0  0
  9 10  1  0  0  0  0
 10 11  1  0  0  0  0
  6 11  1  0  0  0  0
  9 12  1  0  0  0  0
 12 13  2  0  0  0  0
 13 14  1  0  0  0  0
 14 15  2  0  0  0  0
 15 16  1  0  0  0  0
 16 17  2  0  0  0  0
 12 17  1  0  0  0  0
 17 18  1  0  0  0  0
 13 19  1  0  0  0  0
 19 20  2  0  0  0  0
 20 21  1  0  0  0  0
 21 22  2  0  0  0  0
 22 23  1  0  0  0  0
 23 24  1  0  0  0  0
 23 25  2  0  0  0  0
 19 25  1  0  0  0  0
 20 26  1  0  0  0  0
 26 27  2  0  0  0  0
 27 28  1  0  0  0  0
 28 29  1  0  0  0  0
 29 30  1  0  0  0  0
 29 31  2  0  0  0  0
 28 32  2  0  0  0  0
 32 33  1  0  0  0  0
 32 34  1  0  0  0  0
 34 35  2  0  0  0  0
 26 35  1  0  0  0  0
M  END
> <ID>
CPD_5062

$$$$
CPD_5067
  Mrv1822 09091914012D          

 24 25  0  0  0  0            999 V2000
    0.7145   -0.4125    0.0000 C   0  0  0  0  0  0  0  0  0  0  0  0
    0.7145   -1.2375    0.0000 N   0  0  0  0  0  0  0  0  0  0  0  0
    1.4289   -1.6500    0.0000 N   0  0  0  0  0  0  0  0  0  0  0  0
    1.4289   -2.4750    0.0000 C   0  0  0  0  0  0  0  0  0  0  0  0
    0.7145   -2.8875    0.0000 C   0  0  0  0  0  0  0  0  0  0  0  0
    0.0000   -2.4750    0.0000 C   0  0  0  0  0  0  0  0  0  0  0  0
   -0.7145   -2.8875    0.0000 Cl  0  0  0  0  0  0  0  0  0  0  0  0
    0.0000   -1.6500    0.0000 C   0  0  0  0  0  0  0  0  0  0  0  0
   -0.7145   -1.2375    0.0000 O   0  0  0  0  0  0  0  0  0  0  0  0
    2.1434   -2.8875    0.0000 C   0  0  0  0  0  0  0  0  0  0  0  0
    2.8579   -2.4750    0.0000 C   0  0  0  0  0  0  0  0  0  0  0  0
    3.5724   -2.8875    0.0000 C   0  0  0  0  0  0  0  0  0  0  0  0
    3.5724   -3.7125    0.0000 C   0  0  0  0  0  0  0  0  0  0  0  0
    4.2868   -4.1250    0.0000 N   0  0  0  0  0  0  0  0  0  0  0  0
    5.0013   -3.7125    0.0000 C   0  0  0  0  0  0  0  0  0  0  0  0
    5.0013   -2.8875    0.0000 O   0  0  0  0  0  0  0  0  0  0  0  0
    5.7158   -4.1250    0.0000 O   0  0  0  0  0  0  0  0  0  0  0  0
    6.4302   -3.7125    0.0000 C   0  0  0  0  0  0  0  0  0  0  0  0
    7.1447   -3.3000    0.0000 C   0  0  0  0  0  0  0  0  0  0  0  0
    6.8427   -4.4270    0.0000 C   0  0  0  0  0  0  0  0  0  0  0  0
    6.0177   -2.9980    0.0000 C   0  0  0  0  0  0  0  0  0  0  0  0
    2.8579   -4.1250    0.0000 C   0  0  0  0  0  0  0  0  0  0  0  0
    2.1434   -3.7125    0.0000 C   0  0  0  0  0  0  0  0  0  0  0  0
    1.4289   -4.1250    0.0000 N   0  0  0  0  0  0  0  0  0  0  0  0
  1  2  1  0  0  0  0
  2  3  1  0  0  0  0
  3  4  2  0  0  0  0
  4  5  1  0  0  0  0
  5  6  2  0  0  0  0
  6  7  1  0  0  0  0
  6  8  1  0  0  0  0
  2  8  1  0  0  0  0
  8  9  2  0  0  0  0
  4 10  1  0  0  0  0
 10 11  2  0  0  0  0
 11 12  1  0  0  0  0
 12 13  2  0  0  0  0
 13 14  1  0  0  0  0
 14 15  1  0  0  0  0
 15 16  2  0  0  0  0
 15 17  1  0  0  0  0
 17 18  1  0  0  0  0
 18 19  1  0  0  0  0
 18 20  1  0  0  0  0
 18 21  1  0  0  0  0
 13 22  1  0  0  0  0
 22 23  2  0  0  0  0
 10 23  1  0  0  0  0
 23 24  1  0  0  0  0
M  END
> <ID>
CPD_5067

$$$$
CPD_5072
  Mrv1822 09091914012D          

 27 29  0  0  0  0            999 V2000
    4.1801   -0.0616    0.0000 C   0  0  0  0  0  0  0  0  0  0  0  0
    3.4656   -0.4741    0.0000 C   0  0  0  0  0  0  0  0  0  0  0  0
    3.4656   -1.2991    0.0000 O   0  0  0  0  0  0  0  0  0  0  0  0
    2.7512   -1.7116    0.0000 C   0  0  0  0  0  0  0  0  0  0  0  0
    2.0367   -1.2991    0.0000 O   0  0  0  0  0  0  0  0  0  0  0  0
    2.7512   -2.5366    0.0000 C   0  0  0  0  0  0  0  0  0  0  0  0
    3.4186   -3.0215    0.0000 C   0  0  0  0  0  0  0  0  0  0  0  0
    3.1637   -3.8062    0.0000 S   0  0  0  0  0  0  0  0  0  0  0  0
    2.3387   -3.8062    0.0000 C   0  0  0  0  0  0  0  0  0  0  0  0
    2.0837   -3.0215    0.0000 N   0  0  0  0  0  0  0  0  0  0  0  0
    1.8538   -4.4736    0.0000 C   0  0  0  0  0  0  0  0  0  0  0  0
    2.1893   -5.2273    0.0000 C   0  0  0  0  0  0  0  0  0  0  0  0
    1.7044   -5.8947    0.0000 C   0  0  0  0  0  0  0  0  0  0  0  0
    0.8839   -5.8085    0.0000 C   0  0  0  0  0  0  0  0  0  0  0  0
    0.5484   -5.0548    0.0000 C   0  0  0  0  0  0  0  0  0  0  0  0
    1.0333   -4.3874    0.0000 C   0  0  0  0  0  0  0  0  0  0  0  0
   -0.2721   -4.9686    0.0000 C   0  0  0  0  0  0  0  0  0  0  0  0
   -0.7571   -5.6360    0.0000 C   0  0  0  0  0  0  0  0  0  0  0  0
   -0.4215   -6.3897    0.0000 C   0  0  0  0  0  0  0  0  0  0  0  0
   -1.5775   -5.5498    0.0000 C   0  0  0  0  0  0  0  0  0  0  0  0
   -2.0625   -6.2172    0.0000 F   0  0  0  0  0  0  0  0  0  0  0  0
   -1.9131   -4.7961    0.0000 C   0  0  0  0  0  0  0  0  0  0  0  0
   -1.4282   -4.1286    0.0000 C   0  0  0  0  0  0  0  0  0  0  0  0
   -0.6077   -4.2149    0.0000 C   0  0  0  0  0  0  0  0  0  0  0  0
   -1.7637   -3.3750    0.0000 C   0  0  0  0  0  0  0  0  0  0  0  0
   -2.5842   -3.2887    0.0000 O   0  0  0  0  0  0  0  0  0  0  0  0
   -1.2788   -2.7075    0.0000 O   0  0  0  0  0  0  0  0  0  0  0  0
  1  2  1  0  0  0  0
  2  3  1  0  0  0  0
  3  4  1  0  0  0  0
  4  5  2  0  0  0  0
  4  6  1  0  0  0  0
  6  7  2  0  0  0  0
  7  8  1  0  0  0  0
  8  9  1  0  0  0  0
  9 10  2  0  0  0  0
  6 10  1  0  0  0  0
  9 11  1  0  0  0  0
 11 12  2  0  0  0  0
 12 13  1  0  0  0  0
 13 14  2  0  0  0  0
 14 15  1  0  0  0  0
 15 16  2  0  0  0  0
 11 16  1  0  0  0  0
 15 17  1  0  0  0  0
 17 18  2  0  0  0  0
 18 19  1  0  0  0  0
 18 20  1  0  0  0  0
 20 21  1  0  0  0  0
 20 22  2  0  0  0  0
 22 23  1  0  0  0  0
 23 24  2  0  0  0  0
 17 24  1  0  0  0  0
 23 25  1  0  0  0  0
 25 26  1  0  0  0  0
 25 27  2  0  0  0  0
M  END
> <ID>
CPD_5072

$$$$
CPD_5077
  Mrv1822 09091914012D          

 22 24  0  0  0  0            999 V2000
    4.7812    1.1104    0.0000 C   0  0  0  0  0  0  0  0  0  0  0  0
    4.7812    1.9354    0.0000 C   0  0  0  0  0  0  0  0  0  0  0  0
    4.0668    2.3479    0.0000 C   0  0  0  0  0  0  0  0  0  0  0  0
    4.0668    3.1729    0.0000 C   0  0  0  0  0  0  0  0  0  0  0  0
    4.7812    3.5854    0.0000 C   0  0  0  0  0  0  0  0  0  0  0  0
    5.4957    3.1729    0.0000 C   0  0  0  0  0  0  0  0  0  0  0  0
    5.4957    2.3479    0.0000 C   0  0  0  0  0  0  0  0  0  0  0  0
    6.2102    1.9354    0.0000 F   0  0  0  0  0  0  0  0  0  0  0  0
    4.7812    4.4104    0.0000 C   0  0  0  0  0  0  0  0  0  0  0  0
    5.4957    4.8229    0.0000 O   0  0  0  0  0  0  0  0  0  0  0  0
    4.0668    4.8229    0.0000 O   0  0  0  0  0  0  0  0  0  0  0  0
    3.3523    1.9354    0.0000 C   0  0  0  0  0  0  0  0  0  0  0  0
    3.3523    1.1104    0.0000 C   0  0  0  0  0  0  0  0  0  0  0  0
    2.6378    0.6979    0.0000 C   0  0  0  0  0  0  0  0  0  0  0  0
    1.9233    1.1104    0.0000 C   0  0  0  0  0  0  0  0  0  0  0  0
    1.1387    0.8555    0.0000 S   0  0  0  0  0  0  0  0  0  0  0  0
    0.6538    1.5229    0.0000 C   0  0  0  0  0  0  0  0  0  0  0  0
    1.1387    2.1904    0.0000 C   0  0  0  0  0  0  0  0  0  0  0  0
    0.8838    2.9750    0.0000 C   0  0  0  0  0  0  0  0  0  0  0  0
    0.0768    3.1465    0.0000 O   0  0  0  0  0  0  0  0  0  0  0  0
    1.9233    1.9354    0.0000 C   0  0  0  0  0  0  0  0  0  0  0  0
    2.6378    2.3479    0.0000 C   0  0  0  0  0  0  0  0  0  0  0  0
  1  2  1  0  0  0  0
  2  3  2  0  0  0  0
  3  4  1  0  0  0  0
  4  5  2  0  0  0  0
  5  6  1  0  0  0  0
  6  7  2  0  0  0  0
  2  7  1  0  0  0  0
  7  8  1  0  0  0  0
  5  9  1  0  0  0  0
  9 10  1  0  0  0  0
  9 11  2  0  0  0  0
  3 12  1  0  0  0  0
 12 13  2  0  0  0  0
 13 14  1  0  0  0  0
 14 15  2  0  0  0  0
 15 16  1  0  0  0  0
 16 17  1  0  0  0  0
 17 18  2  0  0  0  0
 18 19  1  0  0  0  0
 19 20  1  0  0  0  0
 18 21  1  0  0  0  0
 15 21  1  0  0  0  0
 21 22  2  0  0  0  0
 12 22  1  0  0  0  0
M  END
> <ID>
CPD_5077

$$$$
CPD_5082
  Mrv1822 09091914012D          

 26 28  0  0  0  0            999 V2000
    2.0367    4.3527    0.0000 C   0  0  0  0  0  0  0  0  0  0  0  0
    2.0367    3.5277    0.0000 O   0  0  0  0  0  0  0  0  0  0  0  0
    2.7512    3.1152    0.0000 C   0  0  0  0  0  0  0  0  0  0  0  0
    3.4656    3.5277    0.0000 O   0  0  0  0  0  0  0  0  0  0  0  0
    2.7512    2.2902    0.0000 C   0  0  0  0  0  0  0  0  0  0  0  0
    3.4656    1.8777    0.0000 C   0  0  0  0  0  0  0  0  0  0  0  0
    3.4656    1.0527    0.0000 C   0  0  0  0  0  0  0  0  0  0  0  0
    2.7512    0.6402    0.0000 C   0  0  0  0  0  0  0  0  0  0  0  0
    2.0367    1.0527    0.0000 C   0  0  0  0  0  0  0  0  0  0  0  0
    2.0367    1.8777    0.0000 C   0  0  0  0  0  0  0  0  0  0  0  0
    2.7512   -0.1848    0.0000 N   0  0  0  0  0  0  0  0  0  0  0  0
    3.4186   -0.6697    0.0000 C   0  0  0  0  0  0  0  0  0  0  0  0
    3.1637   -1.4544    0.0000 C   0  0  0  0  0  0  0  0  0  0  0  0
    2.3387   -1.4544    0.0000 C   0  0  0  0  0  0  0  0  0  0  0  0
    2.0837   -0.6697    0.0000 C   0  0  0  0  0  0  0  0  0  0  0  0
    4.1801    0.6402    0.0000 C   0  0  0  0  0  0  0  0  0  0  0  0
    4.8946    1.0527    0.0000 C   0  0  0  0  0  0  0  0  0  0  0  0
    4.8946    1.8777    0.0000 C   0  0  0  0  0  0  0  0  0  0  0  0
    5.6091    0.6402    0.0000 C   0  0  0  0  0  0  0  0  0  0  0  0
    6.3235    1.0527    0.0000 F   0  0  0  0  0  0  0  0  0  0  0  0
    5.6091   -0.1848    0.0000 C   0  0  0  0  0  0  0  0  0  0  0  0
    4.8946   -0.5973    0.0000 C   0  0  0  0  0  0  0  0  0  0  0  0
    4.1801   -0.1848    0.0000 C   0  0  0  0  0  0  0  0  0  0  0  0
    4.8946   -1.4223    0.0000 C   0  0  0  0  0  0  0  0  0  0  0  0
    5.6091   -1.8348    0.0000 O   0  0  0  0  0  0  0  0  0  0  0  0
    4.1801   -1.8348    0.0000 O   0  0  0  0  0  0  0  0  0  0  0  0
  1  2  1  0  0  0  0
  2  3  1  0  0  0  0
  3  4  2  0  0  0  0
  3  5  1  0  0  0  0
  5  6  2  0  0  0  0
  6  7  1  0  0  0  0
  7  8  2  0  0  0  0
  8  9  1  0  0  0  0
  9 10  2  0  0  0  0
  5 10  1  0  0  0  0
  8 11  1  0  0  0  0
 11 12  1  0  0  0  0
 12 13  1  0  0  0  0
 13 14  1  0  0  0  0
 14 15  1  0  0  0  0
 11 15  1  0  0  0  0
  7 16  1  0  0  0  0
 16 17  2  0  0  0  0
 17 18  1  0  0  0  0
 17 19  1  0  0  0  0
 19 20  1  0  0  0  0
 19 21  2  0  0  0  0
 21 22  1  0  0  0  0
 22 23  2  0  0  0  0
 16 23  1  0  0  0  0
 22 24  1  0  0  0  0
 24 25  1  0  0  0  0
 24 26  2  0  0  0  0
M  END
> <ID>
CPD_5082

$$$$
CPD_5087
  Mrv1822 09091914012D          

 35 38  0  0  0  0            999 V2000
    5.0013    3.4661    0.0000 C   0  0  0  0  0  0  0  0  0  0  0  0
    4.2868    3.0536    0.0000 O   0  0  0  0  0  0  0  0  0  0  0  0
    4.2868    2.2286    0.0000 C   0  0  0  0  0  0  0  0  0  0  0  0
    5.0013    1.8161    0.0000 O   0  0  0  0  0  0  0  0  0  0  0  0
    3.5724    1.8161    0.0000 C   0  0  0  0  0  0  0  0  0  0  0  0
    3.5724    0.9911    0.0000 N   0  0  0  0  0  0  0  0  0  0  0  0
    2.9049    0.5062    0.0000 N   0  0  0  0  0  0  0  0  0  0  0  0
    3.1599   -0.2785    0.0000 N   0  0  0  0  0  0  0  0  0  0  0  0
    3.9849   -0.2785    0.0000 C   0  0  0  0  0  0  0  0  0  0  0  0
    4.2398    0.5062    0.0000 N   0  0  0  0  0  0  0  0  0  0  0  0
    4.4698   -0.9459    0.0000 C   0  0  0  0  0  0  0  0  0  0  0  0
    5.2903   -0.8597    0.0000 C   0  0  0  0  0  0  0  0  0  0  0  0
    5.7752   -1.5271    0.0000 C   0  0  0  0  0  0  0  0  0  0  0  0
    5.4396   -2.2808    0.0000 C   0  0  0  0  0  0  0  0  0  0  0  0
    4.6191   -2.3670    0.0000 C   0  0  0  0  0  0  0  0  0  0  0  0
    4.1342   -1.6996    0.0000 C   0  0  0  0  0  0  0  0  0  0  0  0
    3.3137   -1.7858    0.0000 O   0  0  0  0  0  0  0  0  0  0  0  0
    2.9782   -2.5395    0.0000 C   0  0  0  0  0  0  0  0  0  0  0  0
    3.4631   -3.2069    0.0000 C   0  0  0  0  0  0  0  0  0  0  0  0
    3.1275   -3.9606    0.0000 C   0  0  0  0  0  0  0  0  0  0  0  0
    2.3071   -4.0468    0.0000 C   0  0  0  0  0  0  0  0  0  0  0  0
    1.9715   -4.8005    0.0000 Cl  0  0  0  0  0  0  0  0  0  0  0  0
    1.8221   -3.3794    0.0000 C   0  0  0  0  0  0  0  0  0  0  0  0
    2.1577   -2.6257    0.0000 C   0  0  0  0  0  0  0  0  0  0  0  0
    1.6728   -1.9583    0.0000 C   0  0  0  0  0  0  0  0  0  0  0  0
    0.8523   -2.0445    0.0000 C   0  0  0  0  0  0  0  0  0  0  0  0
    0.3674   -1.3771    0.0000 C   0  0  0  0  0  0  0  0  0  0  0  0
   -0.4531   -1.4633    0.0000 C   0  0  0  0  0  0  0  0  0  0  0  0
   -1.2736   -1.5496    0.0000 N   0  0  0  0  0  0  0  0  0  0  0  0
    0.7029   -0.6234    0.0000 C   0  0  0  0  0  0  0  0  0  0  0  0
    1.5234   -0.5372    0.0000 C   0  0  0  0  0  0  0  0  0  0  0  0
    2.0083   -1.2046    0.0000 C   0  0  0  0  0  0  0  0  0  0  0  0
    0.2180    0.0440    0.0000 N   0  0  0  0  0  0  0  0  0  0  0  0
   -0.6025   -0.0422    0.0000 C   0  0  0  0  0  0  0  0  0  0  0  0
    0.5536    0.7977    0.0000 C   0  0  0  0  0  0  0  0  0  0  0  0
  1  2  1  0  0  0  0
  2  3  1  0  0  0  0
  3  4  2  0  0  0  0
  3  5  1  0  0  0  0
  5  6  1  0  0  0  0
  6  7  1  0  0  0  0
  7  8  2  0  0  0  0
  8  9  1  0  0  0  0
  9 10  2  0  0  0  0
  6 10  1  0  0  0  0
  9 11  1  0  0  0  0
 11 12  2  0  0  0  0
 12 13  1  0  0  0  0
 13 14  2  0  0  0  0
 14 15  1  0  0  0  0
 15 16  2  0  0  0  0
 11 16  1  0  0  0  0
 16 17  1  0  0  0  0
 17 18  1  0  0  0  0
 18 19  2  0  0  0  0
 19 20  1  0  0  0  0
 20 21  2  0  0  0  0
 21 22  1  0  0  0  0
 21 23  1  0  0  0  0
 23 24  2  0  0  0  0
 18 24  1  0  0  0  0
 24 25  1  0  0  0  0
 25 26  2  0  0  0  0
 26 27  1  0  0  0  0
 27 28  1  0  0  0  0
 28 29  3  0  0  0  0
 27 30  2  0  0  0  0
 30 31  1  0  0  0  0
 31 32  2  0  0  0  0
 25 32  1  0  0  0  0
 30 33  1  0  0  0  0
 33 34  1  0  0  0  0
 33 35  1  0  0  0  0
M  END
> <ID>
CPD_5087

$$$$
CPD_5092
  Mrv1822 09091914012D          

 23 25  0  0  0  0            999 V2000
   -2.8579   10.2417    0.0000 C   0  0  0  0  0  0  0  0  0  0  0  0
   -2.8579    9.4167    0.0000 N   0  0  0  0  0  0  0  0  0  0  0  0
   -3.5724    9.0042    0.0000 C   0  0  0  0  0  0  0  0  0  0  0  0
   -2.1434    9.0042    0.0000 C   0  0  0  0  0  0  0  0  0  0  0  0
   -1.4289    9.4167    0.0000 C   0  0  0  0  0  0  0  0  0  0  0  0
   -0.7145    9.8292    0.0000 N   0  0  0  0  0  0  0  0  0  0  0  0
   -2.1434    8.1792    0.0000 C   0  0  0  0  0  0  0  0  0  0  0  0
   -1.4289    7.7667    0.0000 C   0  0  0  0  0  0  0  0  0  0  0  0
   -1.4289    6.9417    0.0000 C   0  0  0  0  0  0  0  0  0  0  0  0
   -2.1434    6.5292    0.0000 C   0  0  0  0  0  0  0  0  0  0  0  0
   -2.8579    6.9417    0.0000 C   0  0  0  0  0  0  0  0  0  0  0  0
   -2.8579    7.7667    0.0000 C   0  0  0  0  0  0  0  0  0  0  0  0
   -2.1434    5.7042    0.0000 C   0  0  0  0  0  0  0  0  0  0  0  0
   -1.4289    5.2917    0.0000 N   0  0  0  0  0  0  0  0  0  0  0  0
   -1.4289    4.4667    0.0000 C   0  0  0  0  0  0  0  0  0  0  0  0
   -0.7145    4.0542    0.0000 O   0  0  0  0  0  0  0  0  0  0  0  0
   -0.7145    3.2292    0.0000 C   0  0  0  0  0  0  0  0  0  0  0  0
   -0.1311    2.6459    0.0000 C   0  0  0  0  0  0  0  0  0  0  0  0
   -0.7145    2.0625    0.0000 N   0  0  0  0  0  0  0  0  0  0  0  0
   -1.2978    2.6459    0.0000 C   0  0  0  0  0  0  0  0  0  0  0  0
   -2.1434    4.0542    0.0000 C   0  0  0  0  0  0  0  0  0  0  0  0
   -2.8579    4.4667    0.0000 N   0  0  0  0  0  0  0  0  0  0  0  0
   -2.8579    5.2917    0.0000 C   0  0  0  0  0  0  0  0  0  0  0  0
  1  2  1  0  0  0  0
  2  3  1  0  0  0  0
  2  4  1  0  0  0  0
  4  5  1  0  0  0  0
  5  6  3  0  0  0  0
  4  7  1  0  0  0  0
  7  8  2  0  0  0  0
  8  9  1  0  0  0  0
  9 10  2  0  0  0  0
 10 11  1  0  0  0  0
 11 12  2  0  0  0  0
  7 12  1  0  0  0  0
 10 13  1  0  0  0  0
 13 14  2  0  0  0  0
 14 15  1  0  0  0  0
 15 16  1  0  0  0  0
 16 17  1  0  0  0  0
 17 18  1  0  0  0  0
 18 19  1  0  0  0  0
 19 20  1  0  0  0  0
 17 20  1  0  0  0  0
 15 21  2  0  0  0  0
 21 22  1  0  0  0  0
 22 23  2  0  0  0  0
 13 23  1  0  0  0  0
M  END
> <ID>
CPD_5092

$$$$
CPD_5097
  Mrv1822 09091914012D          

 22 24  0  0  0  0            999 V2000
   -0.0000    9.4167    0.0000 C   0  0  0  0  0  0  0  0  0  0  0  0
   -0.7145    9.0042    0.0000 N   0  0  0  0  0  0  0  0  0  0  0  0
   -1.4289    9.4167    0.0000 C   0  0  0  0  0  0  0  0  0  0  0  0
   -0.7145    8.1792    0.0000 C   0  0  0  0  0  0  0  0  0  0  0  0
   -0.0000    7.7667    0.0000 O   0  0  0  0  0  0  0  0  0  0  0  0
   -1.4289    7.7667    0.0000 C   0  0  0  0  0  0  0  0  0  0  0  0
   -1.4289    6.9417    0.0000 C   0  0  0  0  0  0  0  0  0  0  0  0
   -2.1434    6.5292    0.0000 C   0  0  0  0  0  0  0  0  0  0  0  0
   -2.8579    6.9417    0.0000 C   0  0  0  0  0  0  0  0  0  0  0  0
   -2.8579    7.7667    0.0000 C   0  0  0  0  0  0  0  0  0  0  0  0
   -2.1434    8.1792    0.0000 C   0  0  0  0  0  0  0  0  0  0  0  0
   -2.1434    5.7042    0.0000 C   0  0  0  0  0  0  0  0  0  0  0  0
   -1.4289    5.2917    0.0000 N   0  0  0  0  0  0  0  0  0  0  0  0
   -1.4289    4.4667    0.0000 C   0  0  0  0  0  0  0  0  0  0  0  0
   -0.7145    4.0542    0.0000 O   0  0  0  0  0  0  0  0  0  0  0  0
   -0.7145    3.2292    0.0000 C   0  0  0  0  0  0  0  0  0  0  0  0
   -0.1311    2.6459    0.0000 C   0  0  0  0  0  0  0  0  0  0  0  0
   -0.7145    2.0625    0.0000 N   0  0  0  0  0  0  0  0  0  0  0  0
   -1.2978    2.6459    0.0000 C   0  0  0  0  0  0  0  0  0  0  0  0
   -2.1434    4.0542    0.0000 C   0  0  0  0  0  0  0  0  0  0  0  0
   -2.8579    4.4667    0.0000 N   0  0  0  0  0  0  0  0  0  0  0  0
   -2.8579    5.2917    0.0000 C   0  0  0  0  0  0  0  0  0  0  0  0
  1  2  1  0  0  0  0
  2  3  1  0  0  0  0
  2  4  1  0  0  0  0
  4  5  2  0  0  0  0
  4  6  1  0  0  0  0
  6  7  2  0  0  0  0
  7  8  1  0  0  0  0
  8  9  2  0  0  0  0
  9 10  1  0  0  0  0
 10 11  2  0  0  0  0
  6 11  1  0  0  0  0
  8 12  1  0  0  0  0
 12 13  2  0  0  0  0
 13 14  1  0  0  0  0
 14 15  1  0  0  0  0
 15 16  1  0  0  0  0
 16 17  1  0  0  0  0
 17 18  1  0  0  0  0
 18 19  1  0  0  0  0
 16 19  1  0  0  0  0
 14 20  2  0  0  0  0
 20 21  1  0  0  0  0
 21 22  2  0  0  0  0
 12 22  1  0  0  0  0
M  END
> <ID>
CPD_5097

$$$$
CPD_5102
  Mrv1822 09091914012D          

 30 34  0  0  0  0            999 V2000
   -4.1064    9.8432    0.0000 N   0  0  0  0  0  0  0  0  0  0  0  0
   -3.2995    9.6717    0.0000 C   0  0  0  0  0  0  0  0  0  0  0  0
   -2.6864   10.2237    0.0000 N   0  0  0  0  0  0  0  0  0  0  0  0
   -1.9719    9.8112    0.0000 C   0  0  0  0  0  0  0  0  0  0  0  0
   -1.5594   10.5257    0.0000 O   0  0  0  0  0  0  0  0  0  0  0  0
   -2.1434    9.0042    0.0000 C   0  0  0  0  0  0  0  0  0  0  0  0
   -1.3229    8.9180    0.0000 C   0  0  0  0  0  0  0  0  0  0  0  0
   -0.8380    9.5854    0.0000 C   0  0  0  0  0  0  0  0  0  0  0  0
   -1.0929   10.3701    0.0000 C   0  0  0  0  0  0  0  0  0  0  0  0
   -0.4255   10.8550    0.0000 C   0  0  0  0  0  0  0  0  0  0  0  0
    0.2419   10.3701    0.0000 C   0  0  0  0  0  0  0  0  0  0  0  0
   -0.0130    9.5854    0.0000 O   0  0  0  0  0  0  0  0  0  0  0  0
   -2.9639    8.9180    0.0000 N   0  0  0  0  0  0  0  0  0  0  0  0
   -2.1434    8.1792    0.0000 C   0  0  0  0  0  0  0  0  0  0  0  0
   -1.4289    7.7667    0.0000 C   0  0  0  0  0  0  0  0  0  0  0  0
   -1.4289    6.9417    0.0000 C   0  0  0  0  0  0  0  0  0  0  0  0
   -2.1434    6.5292    0.0000 C   0  0  0  0  0  0  0  0  0  0  0  0
   -2.8579    6.9417    0.0000 C   0  0  0  0  0  0  0  0  0  0  0  0
   -2.8579    7.7667    0.0000 C   0  0  0  0  0  0  0  0  0  0  0  0
   -2.1434    5.7042    0.0000 C   0  0  0  0  0  0  0  0  0  0  0  0
   -1.4289    5.2917    0.0000 N   0  0  0  0  0  0  0  0  0  0  0  0
   -1.4289    4.4667    0.0000 C   0  0  0  0  0  0  0  0  0  0  0  0
   -0.7145    4.0542    0.0000 O   0  0  0  0  0  0  0  0  0  0  0  0
   -0.7145    3.2292    0.0000 C   0  0  0  0  0  0  0  0  0  0  0  0
   -0.1311    2.6459    0.0000 C   0  0  0  0  0  0  0  0  0  0  0  0
   -0.7145    2.0625    0.0000 N   0  0  0  0  0  0  0  0  0  0  0  0
   -1.2978    2.6459    0.0000 C   0  0  0  0  0  0  0  0  0  0  0  0
   -2.1434    4.0542    0.0000 C   0  0  0  0  0  0  0  0  0  0  0  0
   -2.8579    4.4667    0.0000 N   0  0  0  0  0  0  0  0  0  0  0  0
   -2.8579    5.2917    0.0000 C   0  0  0  0  0  0  0  0  0  0  0  0
  1  2  1  0  0  0  0
  2  3  2  0  0  0  0
  3  4  1  0  0  0  0
  4  5  2  0  0  0  0
  4  6  1  0  0  0  0
  6  7  1  0  0  0  0
  7  8  1  0  0  0  0
  8  9  2  0  0  0  0
  9 10  1  0  0  0  0
 10 11  2  0  0  0  0
 11 12  1  0  0  0  0
  8 12  1  0  0  0  0
  6 13  1  0  0  0  0
  2 13  1  0  0  0  0
  6 14  1  0  0  0  0
 14 15  2  0  0  0  0
 15 16  1  0  0  0  0
 16 17  2  0  0  0  0
 17 18  1  0  0  0  0
 18 19  2  0  0  0  0
 14 19  1  0  0  0  0
 17 20  1  0  0  0  0
 20 21  2  0  0  0  0
 21 22  1  0  0  0  0
 22 23  1  0  0  0  0
 23 24  1  0  0  0  0
 24 25  1  0  0  0  0
 25 26  1  0  0  0  0
 26 27  1  0  0  0  0
 24 27  1  0  0  0  0
 22 28  2  0  0  0  0
 28 29  1  0  0  0  0
 29 30  2  0  0  0  0
 20 30  1  0  0  0  0
M  END
> <ID>
CPD_5102

$$$$
CPD_5107
  Mrv1822 09091914012D          

 18 19  0  0  0  0            999 V2000
    0.1067   -0.0616    0.0000 C   0  0  0  0  0  0  0  0  0  0  0  0
    0.1067    0.7634    0.0000 C   0  0  0  0  0  0  0  0  0  0  0  0
    0.8212    1.1759    0.0000 N   0  0  0  0  0  0  0  0  0  0  0  0
   -0.6078    1.1759    0.0000 C   0  0  0  0  0  0  0  0  0  0  0  0
   -1.3222    0.7634    0.0000 C   0  0  0  0  0  0  0  0  0  0  0  0
   -1.3222   -0.0616    0.0000 C   0  0  0  0  0  0  0  0  0  0  0  0
   -1.9897   -0.5465    0.0000 C   0  0  0  0  0  0  0  0  0  0  0  0
   -2.7743   -0.2916    0.0000 N   0  0  0  0  0  0  0  0  0  0  0  0
   -1.7347   -1.3312    0.0000 S   0  0  0  0  0  0  0  0  0  0  0  0
   -0.9097   -1.3312    0.0000 N   0  0  0  0  0  0  0  0  0  0  0  0
   -0.6548   -0.5465    0.0000 C   0  0  0  0  0  0  0  0  0  0  0  0
    0.1702   -0.5465    0.0000 C   0  0  0  0  0  0  0  0  0  0  0  0
   -2.0367    1.1759    0.0000 C   0  0  0  0  0  0  0  0  0  0  0  0
   -2.7512    0.7634    0.0000 F   0  0  0  0  0  0  0  0  0  0  0  0
   -2.0367    2.0009    0.0000 C   0  0  0  0  0  0  0  0  0  0  0  0
   -1.3222    2.4134    0.0000 C   0  0  0  0  0  0  0  0  0  0  0  0
   -0.6078    2.0009    0.0000 C   0  0  0  0  0  0  0  0  0  0  0  0
    0.1067    2.4134    0.0000 Cl  0  0  0  0  0  0  0  0  0  0  0  0
  1  2  1  0  0  0  0
  2  3  1  0  0  0  0
  2  4  1  0  0  0  0
  4  5  2  0  0  0  0
  5  6  1  0  0  0  0
  6  7  2  0  0  0  0
  7  8  1  0  0  0  0
  7  9  1  0  0  0  0
  9 10  1  0  0  0  0
 10 11  2  0  0  0  0
  6 11  1  0  0  0  0
 11 12  1  0  0  0  0
  5 13  1  0  0  0  0
 13 14  1  0  0  0  0
 13 15  2  0  0  0  0
 15 16  1  0  0  0  0
 16 17  2  0  0  0  0
  4 17  1  0  0  0  0
 17 18  1  0  0  0  0
M  END
> <ID>
CPD_5107

$$$$
CPD_5112
  Mrv1822 09091914012D          

 17 18  0  0  0  0            999 V2000
    0.8212    1.1759    0.0000 C   0  0  0  0  0  0  0  0  0  0  0  0
    0.1067    0.7634    0.0000 C   0  0  0  0  0  0  0  0  0  0  0  0
    0.1067   -0.0616    0.0000 N   0  0  0  0  0  0  0  0  0  0  0  0
   -0.6078    1.1759    0.0000 C   0  0  0  0  0  0  0  0  0  0  0  0
   -1.3222    0.7634    0.0000 C   0  0  0  0  0  0  0  0  0  0  0  0
   -1.3222   -0.0616    0.0000 C   0  0  0  0  0  0  0  0  0  0  0  0
   -0.6548   -0.5465    0.0000 N   0  0  0  0  0  0  0  0  0  0  0  0
   -0.9097   -1.3312    0.0000 N   0  0  0  0  0  0  0  0  0  0  0  0
   -1.7347   -1.3312    0.0000 C   0  0  0  0  0  0  0  0  0  0  0  0
   -2.2197   -1.9986    0.0000 N   0  0  0  0  0  0  0  0  0  0  0  0
   -1.9897   -0.5465    0.0000 C   0  0  0  0  0  0  0  0  0  0  0  0
   -2.0367    1.1759    0.0000 C   0  0  0  0  0  0  0  0  0  0  0  0
   -2.7512    0.7634    0.0000 F   0  0  0  0  0  0  0  0  0  0  0  0
   -2.0367    2.0009    0.0000 C   0  0  0  0  0  0  0  0  0  0  0  0
   -1.3222    2.4134    0.0000 C   0  0  0  0  0  0  0  0  0  0  0  0
   -0.6078    2.0009    0.0000 C   0  0  0  0  0  0  0  0  0  0  0  0
    0.1067    2.4134    0.0000 Cl  0  0  0  0  0  0  0  0  0  0  0  0
  1  2  1  0  0  0  0
  2  3  1  0  0  0  0
  2  4  1  0  0  0  0
  4  5  2  0  0  0  0
  5  6  1  0  0  0  0
  6  7  2  0  0  0  0
  7  8  1  0  0  0  0
  8  9  1  0  0  0  0
  9 10  1  0  0  0  0
  9 11  2  0  0  0  0
  6 11  1  0  0  0  0
  5 12  1  0  0  0  0
 12 13  1  0  0  0  0
 12 14  2  0  0  0  0
 14 15  1  0  0  0  0
 15 16  2  0  0  0  0
  4 16  1  0  0  0  0
 16 17  1  0  0  0  0
M  END
> <ID>
CPD_5112

$$$$
CPD_5117
  Mrv1822 09091914012D          

 24 27  0  0  0  0            999 V2000
    3.2789    2.0625    0.0000 O   0  0  0  0  0  0  0  0  0  0  0  0
    3.2789    1.2375    0.0000 C   0  0  0  0  0  0  0  0  0  0  0  0
    3.9934    0.8250    0.0000 N   0  0  0  0  0  0  0  0  0  0  0  0
    3.9934    0.0000    0.0000 C   0  0  0  0  0  0  0  0  0  0  0  0
    3.2789   -0.4125    0.0000 N   0  0  0  0  0  0  0  0  0  0  0  0
    2.5645    0.0000    0.0000 C   0  0  0  0  0  0  0  0  0  0  0  0
    2.5645    0.8250    0.0000 C   0  0  0  0  0  0  0  0  0  0  0  0
    1.7798    1.0799    0.0000 S   0  0  0  0  0  0  0  0  0  0  0  0
    1.2949    0.4125    0.0000 C   0  0  0  0  0  0  0  0  0  0  0  0
    1.7798   -0.2549    0.0000 C   0  0  0  0  0  0  0  0  0  0  0  0
    0.4699    0.4125    0.0000 C   0  0  0  0  0  0  0  0  0  0  0  0
   -0.0150   -0.2549    0.0000 C   0  0  0  0  0  0  0  0  0  0  0  0
   -0.7996    0.0000    0.0000 C   0  0  0  0  0  0  0  0  0  0  0  0
   -0.7996    0.8250    0.0000 C   0  0  0  0  0  0  0  0  0  0  0  0
   -0.0150    1.0799    0.0000 S   0  0  0  0  0  0  0  0  0  0  0  0
   -1.4671    1.3099    0.0000 S   0  0  0  0  0  0  0  0  0  0  0  0
   -0.9821    1.9774    0.0000 O   0  0  0  0  0  0  0  0  0  0  0  0
   -1.9520    0.6425    0.0000 O   0  0  0  0  0  0  0  0  0  0  0  0
   -2.1345    1.7948    0.0000 N   0  0  0  0  0  0  0  0  0  0  0  0
   -2.8882    1.4593    0.0000 C   0  0  0  0  0  0  0  0  0  0  0  0
   -3.5556    1.9442    0.0000 C   0  0  0  0  0  0  0  0  0  0  0  0
   -3.4694    2.7647    0.0000 C   0  0  0  0  0  0  0  0  0  0  0  0
   -2.7157    3.1002    0.0000 C   0  0  0  0  0  0  0  0  0  0  0  0
   -2.0483    2.6153    0.0000 C   0  0  0  0  0  0  0  0  0  0  0  0
  1  2  1  0  0  0  0
  2  3  2  0  0  0  0
  3  4  1  0  0  0  0
  4  5  2  0  0  0  0
  5  6  1  0  0  0  0
  6  7  2  0  0  0  0
  2  7  1  0  0  0  0
  7  8  1  0  0  0  0
  8  9  1  0  0  0  0
  9 10  2  0  0  0  0
  6 10  1  0  0  0  0
  9 11  1  0  0  0  0
 11 12  2  0  0  0  0
 12 13  1  0  0  0  0
 13 14  2  0  0  0  0
 14 15  1  0  0  0  0
 11 15  1  0  0  0  0
 14 16  1  0  0  0  0
 16 17  2  0  0  0  0
 16 18  2  0  0  0  0
 16 19  1  0  0  0  0
 19 20  1  0  0  0  0
 20 21  1  0  0  0  0
 21 22  1  0  0  0  0
 22 23  1  0  0  0  0
 23 24  1  0  0  0  0
 19 24  1  0  0  0  0
M  END
> <ID>
CPD_5117

$$$$
CPD_5122
  Mrv1822 09091914012D          

 21 24  0  0  0  0            999 V2000
    3.0789   -4.4590    0.0000 O   0  0  0  0  0  0  0  0  0  0  0  0
    2.2539   -4.4590    0.0000 C   0  0  0  0  0  0  0  0  0  0  0  0
    1.8414   -5.1735    0.0000 N   0  0  0  0  0  0  0  0  0  0  0  0
    1.0164   -5.1735    0.0000 C   0  0  0  0  0  0  0  0  0  0  0  0
    0.6039   -4.4590    0.0000 N   0  0  0  0  0  0  0  0  0  0  0  0
    1.0164   -3.7445    0.0000 C   0  0  0  0  0  0  0  0  0  0  0  0
    1.8414   -3.7445    0.0000 C   0  0  0  0  0  0  0  0  0  0  0  0
    2.0964   -2.9599    0.0000 S   0  0  0  0  0  0  0  0  0  0  0  0
    1.4289   -2.4750    0.0000 C   0  0  0  0  0  0  0  0  0  0  0  0
    0.7615   -2.9599    0.0000 C   0  0  0  0  0  0  0  0  0  0  0  0
    1.4289   -1.6500    0.0000 C   0  0  0  0  0  0  0  0  0  0  0  0
    0.7145   -1.2375    0.0000 C   0  0  0  0  0  0  0  0  0  0  0  0
    0.7145   -0.4125    0.0000 N   0  0  0  0  0  0  0  0  0  0  0  0
    1.4289    0.0000    0.0000 N   0  0  0  0  0  0  0  0  0  0  0  0
    2.1434   -0.4125    0.0000 C   0  0  0  0  0  0  0  0  0  0  0  0
    2.8579    0.0000    0.0000 C   0  0  0  0  0  0  0  0  0  0  0  0
    3.5724   -0.4125    0.0000 C   0  0  0  0  0  0  0  0  0  0  0  0
    3.5724   -1.2375    0.0000 C   0  0  0  0  0  0  0  0  0  0  0  0
    4.2868   -1.6500    0.0000 Br  0  0  0  0  0  0  0  0  0  0  0  0
    2.8579   -1.6500    0.0000 C   0  0  0  0  0  0  0  0  0  0  0  0
    2.1434   -1.2375    0.0000 C   0  0  0  0  0  0  0  0  0  0  0  0
  1  2  1  0  0  0  0
  2  3  2  0  0  0  0
  3  4  1  0  0  0  0
  4  5  2  0  0  0  0
  5  6  1  0  0  0  0
  6  7  2  0  0  0  0
  2  7  1  0  0  0  0
  7  8  1  0  0  0  0
  8  9  1  0  0  0  0
  9 10  2  0  0  0  0
  6 10  1  0  0  0  0
  9 11  1  0  0  0  0
 11 12  2  0  0  0  0
 12 13  1  0  0  0  0
 13 14  2  0  0  0  0
 14 15  1  0  0  0  0
 15 16  2  0  0  0  0
 16 17  1  0  0  0  0
 17 18  2  0  0  0  0
 18 19  1  0  0  0  0
 18 20  1  0  0  0  0
 20 21  2  0  0  0  0
 11 21  1  0  0  0  0
 15 21  1  0  0  0  0
M  END
> <ID>
CPD_5122

$$$$
CPD_5127
  Mrv1822 09091914012D          

 29 32  0  0  0  0            999 V2000
   -1.4534    0.7310    0.0000 C   0  0  0  0  0  0  0  0  0  0  0  0
   -1.8659    0.0165    0.0000 C   0  0  0  0  0  0  0  0  0  0  0  0
   -1.4534   -0.6979    0.0000 C   0  0  0  0  0  0  0  0  0  0  0  0
   -1.8659   -1.4124    0.0000 C   0  0  0  0  0  0  0  0  0  0  0  0
   -2.6909   -1.4124    0.0000 C   0  0  0  0  0  0  0  0  0  0  0  0
   -3.1034   -2.1269    0.0000 N   0  0  0  0  0  0  0  0  0  0  0  0
   -3.9284   -2.1269    0.0000 C   0  0  0  0  0  0  0  0  0  0  0  0
   -4.3409   -1.4124    0.0000 O   0  0  0  0  0  0  0  0  0  0  0  0
   -4.3409   -2.8414    0.0000 C   0  0  0  0  0  0  0  0  0  0  0  0
   -3.9284   -3.5558    0.0000 C   0  0  0  0  0  0  0  0  0  0  0  0
   -4.3409   -4.2703    0.0000 C   0  0  0  0  0  0  0  0  0  0  0  0
   -5.1659   -4.2703    0.0000 C   0  0  0  0  0  0  0  0  0  0  0  0
   -5.5784   -3.5558    0.0000 C   0  0  0  0  0  0  0  0  0  0  0  0
   -5.1659   -2.8414    0.0000 C   0  0  0  0  0  0  0  0  0  0  0  0
   -3.1034   -3.5558    0.0000 C   0  0  0  0  0  0  0  0  0  0  0  0
   -2.6909   -4.2703    0.0000 O   0  0  0  0  0  0  0  0  0  0  0  0
   -2.6909   -2.8414    0.0000 O   0  0  0  0  0  0  0  0  0  0  0  0
   -3.1034   -0.6979    0.0000 C   0  0  0  0  0  0  0  0  0  0  0  0
   -2.6909    0.0165    0.0000 C   0  0  0  0  0  0  0  0  0  0  0  0
   -0.6284   -0.6979    0.0000 C   0  0  0  0  0  0  0  0  0  0  0  0
   -0.1435   -1.3654    0.0000 C   0  0  0  0  0  0  0  0  0  0  0  0
    0.6411   -1.1104    0.0000 C   0  0  0  0  0  0  0  0  0  0  0  0
    0.6411   -0.2854    0.0000 C   0  0  0  0  0  0  0  0  0  0  0  0
   -0.1435   -0.0305    0.0000 S   0  0  0  0  0  0  0  0  0  0  0  0
    1.3556    0.1271    0.0000 C   0  0  0  0  0  0  0  0  0  0  0  0
    1.3556    0.9521    0.0000 O   0  0  0  0  0  0  0  0  0  0  0  0
    2.0701   -0.2854    0.0000 N   0  0  0  0  0  0  0  0  0  0  0  0
    2.0701   -1.1104    0.0000 C   0  0  0  0  0  0  0  0  0  0  0  0
    1.3556   -1.5229    0.0000 N   0  0  0  0  0  0  0  0  0  0  0  0
  1  2  1  0  0  0  0
  2  3  2  0  0  0  0
  3  4  1  0  0  0  0
  4  5  2  0  0  0  0
  5  6  1  0  0  0  0
  6  7  1  0  0  0  0
  7  8  2  0  0  0  0
  7  9  1  0  0  0  0
  9 10  2  0  0  0  0
 10 11  1  0  0  0  0
 11 12  2  0  0  0  0
 12 13  1  0  0  0  0
 13 14  2  0  0  0  0
  9 14  1  0  0  0  0
 10 15  1  0  0  0  0
 15 16  1  0  0  0  0
 15 17  2  0  0  0  0
  5 18  1  0  0  0  0
 18 19  2  0  0  0  0
  2 19  1  0  0  0  0
  3 20  1  0  0  0  0
 20 21  2  0  0  0  0
 21 22  1  0  0  0  0
 22 23  2  0  0  0  0
 23 24  1  0  0  0  0
 20 24  1  0  0  0  0
 23 25  1  0  0  0  0
 25 26  1  0  0  0  0
 25 27  2  0  0  0  0
 27 28  1  0  0  0  0
 28 29  2  0  0  0  0
 22 29  1  0  0  0  0
M  END
> <ID>
CPD_5127

$$$$
CPD_5132
  Mrv1822 09091914012D          

 17 19  0  0  0  0            999 V2000
    3.2789    2.0625    0.0000 O   0  0  0  0  0  0  0  0  0  0  0  0
    3.2789    1.2375    0.0000 C   0  0  0  0  0  0  0  0  0  0  0  0
    3.9934    0.8250    0.0000 N   0  0  0  0  0  0  0  0  0  0  0  0
    3.9934    0.0000    0.0000 C   0  0  0  0  0  0  0  0  0  0  0  0
    3.2789   -0.4125    0.0000 N   0  0  0  0  0  0  0  0  0  0  0  0
    2.5645    0.0000    0.0000 C   0  0  0  0  0  0  0  0  0  0  0  0
    2.5645    0.8250    0.0000 C   0  0  0  0  0  0  0  0  0  0  0  0
    1.7798    1.0799    0.0000 S   0  0  0  0  0  0  0  0  0  0  0  0
    1.2949    0.4125    0.0000 C   0  0  0  0  0  0  0  0  0  0  0  0
    1.7798   -0.2549    0.0000 C   0  0  0  0  0  0  0  0  0  0  0  0
    0.4699    0.4125    0.0000 C   0  0  0  0  0  0  0  0  0  0  0  0
    0.0574   -0.3020    0.0000 C   0  0  0  0  0  0  0  0  0  0  0  0
   -0.7676   -0.3020    0.0000 C   0  0  0  0  0  0  0  0  0  0  0  0
   -1.1801    0.4125    0.0000 C   0  0  0  0  0  0  0  0  0  0  0  0
   -2.0051    0.4125    0.0000 Cl  0  0  0  0  0  0  0  0  0  0  0  0
   -0.7676    1.1270    0.0000 C   0  0  0  0  0  0  0  0  0  0  0  0
    0.0574    1.1270    0.0000 C   0  0  0  0  0  0  0  0  0  0  0  0
  1  2  1  0  0  0  0
  2  3  2  0  0  0  0
  3  4  1  0  0  0  0
  4  5  2  0  0  0  0
  5  6  1  0  0  0  0
  6  7  2  0  0  0  0
  2  7  1  0  0  0  0
  7  8  1  0  0  0  0
  8  9  1  0  0  0  0
  9 10  2  0  0  0  0
  6 10  1  0  0  0  0
  9 11  1  0  0  0  0
 11 12  2  0  0  0  0
 12 13  1  0  0  0  0
 13 14  2  0  0  0  0
 14 15  1  0  0  0  0
 14 16  1  0  0  0  0
 16 17  2  0  0  0  0
 11 17  1  0  0  0  0
M  END
> <ID>
CPD_5132

$$$$
CPD_5137
  Mrv1822 09091914012D          

 26 29  0  0  0  0            999 V2000
   -3.9284   -0.6979    0.0000 N   0  0  0  0  0  0  0  0  0  0  0  0
   -3.1034   -0.6979    0.0000 C   0  0  0  0  0  0  0  0  0  0  0  0
   -2.6909    0.0165    0.0000 C   0  0  0  0  0  0  0  0  0  0  0  0
   -1.8659    0.0165    0.0000 C   0  0  0  0  0  0  0  0  0  0  0  0
   -1.4534   -0.6979    0.0000 C   0  0  0  0  0  0  0  0  0  0  0  0
   -1.8659   -1.4124    0.0000 C   0  0  0  0  0  0  0  0  0  0  0  0
   -2.6909   -1.4124    0.0000 C   0  0  0  0  0  0  0  0  0  0  0  0
   -0.6284   -0.6979    0.0000 C   0  0  0  0  0  0  0  0  0  0  0  0
   -0.1435   -1.3654    0.0000 C   0  0  0  0  0  0  0  0  0  0  0  0
    0.6411   -1.1104    0.0000 C   0  0  0  0  0  0  0  0  0  0  0  0
    0.6411   -0.2854    0.0000 C   0  0  0  0  0  0  0  0  0  0  0  0
   -0.1435   -0.0305    0.0000 S   0  0  0  0  0  0  0  0  0  0  0  0
    1.3556    0.1271    0.0000 C   0  0  0  0  0  0  0  0  0  0  0  0
    1.3556    0.9521    0.0000 O   0  0  0  0  0  0  0  0  0  0  0  0
    2.0701   -0.2854    0.0000 N   0  0  0  0  0  0  0  0  0  0  0  0
    2.0701   -1.1104    0.0000 C   0  0  0  0  0  0  0  0  0  0  0  0
    1.3556   -1.5229    0.0000 N   0  0  0  0  0  0  0  0  0  0  0  0
   -3.1034    0.7310    0.0000 C   0  0  0  0  0  0  0  0  0  0  0  0
   -3.9284    0.7310    0.0000 O   0  0  0  0  0  0  0  0  0  0  0  0
   -2.6909    1.4455    0.0000 C   0  0  0  0  0  0  0  0  0  0  0  0
   -3.1034    2.1599    0.0000 C   0  0  0  0  0  0  0  0  0  0  0  0
   -3.9284    2.1599    0.0000 Cl  0  0  0  0  0  0  0  0  0  0  0  0
   -2.6909    2.8744    0.0000 C   0  0  0  0  0  0  0  0  0  0  0  0
   -1.8659    2.8744    0.0000 C   0  0  0  0  0  0  0  0  0  0  0  0
   -1.4534    2.1599    0.0000 C   0  0  0  0  0  0  0  0  0  0  0  0
   -1.8659    1.4455    0.0000 C   0  0  0  0  0  0  0  0  0  0  0  0
  1  2  1  0  0  0  0
  2  3  2  0  0  0  0
  3  4  1  0  0  0  0
  4  5  2  0  0  0  0
  5  6  1  0  0  0  0
  6  7  2  0  0  0  0
  2  7  1  0  0  0  0
  5  8  1  0  0  0  0
  8  9  2  0  0  0  0
  9 10  1  0  0  0  0
 10 11  2  0  0  0  0
 11 12  1  0  0  0  0
  8 12  1  0  0  0  0
 11 13  1  0  0  0  0
 13 14  1  0  0  0  0
 13 15  2  0  0  0  0
 15 16  1  0  0  0  0
 16 17  2  0  0  0  0
 10 17  1  0  0  0  0
  3 18  1  0  0  0  0
 18 19  2  0  0  0  0
 18 20  1  0  0  0  0
 20 21  2  0  0  0  0
 21 22  1  0  0  0  0
 21 23  1  0  0  0  0
 23 24  2  0  0  0  0
 24 25  1  0  0  0  0
 25 26  2  0  0  0  0
 20 26  1  0  0  0  0
M  END
> <ID>
CPD_5137

$$$$
CPD_5142
  Mrv1822 09091914012D          

 21 23  0  0  0  0            999 V2000
   -1.4087   -2.8414    0.0000 C   0  0  0  0  0  0  0  0  0  0  0  0
   -1.8212   -2.1269    0.0000 O   0  0  0  0  0  0  0  0  0  0  0  0
   -1.4087   -1.4124    0.0000 C   0  0  0  0  0  0  0  0  0  0  0  0
   -0.5837   -1.4124    0.0000 C   0  0  0  0  0  0  0  0  0  0  0  0
   -0.1712   -2.1269    0.0000 N   0  0  0  0  0  0  0  0  0  0  0  0
   -0.1712   -0.6979    0.0000 C   0  0  0  0  0  0  0  0  0  0  0  0
   -0.5837    0.0165    0.0000 C   0  0  0  0  0  0  0  0  0  0  0  0
   -1.4087    0.0165    0.0000 C   0  0  0  0  0  0  0  0  0  0  0  0
   -1.8212   -0.6979    0.0000 C   0  0  0  0  0  0  0  0  0  0  0  0
    0.6538   -0.6979    0.0000 C   0  0  0  0  0  0  0  0  0  0  0  0
    1.1387   -0.0305    0.0000 C   0  0  0  0  0  0  0  0  0  0  0  0
    0.8838    0.7541    0.0000 C   0  0  0  0  0  0  0  0  0  0  0  0
    1.4358    1.3672    0.0000 C   0  0  0  0  0  0  0  0  0  0  0  0
    0.0768    0.9256    0.0000 O   0  0  0  0  0  0  0  0  0  0  0  0
    1.9233   -0.2854    0.0000 C   0  0  0  0  0  0  0  0  0  0  0  0
    2.6378    0.1271    0.0000 C   0  0  0  0  0  0  0  0  0  0  0  0
    3.3523   -0.2854    0.0000 C   0  0  0  0  0  0  0  0  0  0  0  0
    3.3523   -1.1104    0.0000 C   0  0  0  0  0  0  0  0  0  0  0  0
    2.6378   -1.5229    0.0000 C   0  0  0  0  0  0  0  0  0  0  0  0
    1.9233   -1.1104    0.0000 C   0  0  0  0  0  0  0  0  0  0  0  0
    1.1387   -1.3654    0.0000 N   0  0  0  0  0  0  0  0  0  0  0  0
  1  2  1  0  0  0  0
  2  3  1  0  0  0  0
  3  4  2  0  0  0  0
  4  5  1  0  0  0  0
  4  6  1  0  0  0  0
  6  7  2  0  0  0  0
  7  8  1  0  0  0  0
  8  9  2  0  0  0  0
  3  9  1  0  0  0  0
  6 10  1  0  0  0  0
 10 11  2  0  0  0  0
 11 12  1  0  0  0  0
 12 13  1  0  0  0  0
 12 14  2  0  0  0  0
 11 15  1  0  0  0  0
 15 16  2  0  0  0  0
 16 17  1  0  0  0  0
 17 18  2  0  0  0  0
 18 19  1  0  0  0  0
 19 20  2  0  0  0  0
 15 20  1  0  0  0  0
 20 21  1  0  0  0  0
 10 21  1  0  0  0  0
M  END
> <ID>
CPD_5142

$$$$
CPD_5147
  Mrv1822 09091914012D          

 20 22  0  0  0  0            999 V2000
   -2.8579   -1.6500    0.0000 C   0  0  0  0  0  0  0  0  0  0  0  0
   -2.1434   -1.2375    0.0000 O   0  0  0  0  0  0  0  0  0  0  0  0
   -1.4289   -1.6500    0.0000 C   0  0  0  0  0  0  0  0  0  0  0  0
   -0.7145   -1.2375    0.0000 C   0  0  0  0  0  0  0  0  0  0  0  0
   -0.7145   -0.4125    0.0000 N   0  0  0  0  0  0  0  0  0  0  0  0
    0.0000   -1.6500    0.0000 C   0  0  0  0  0  0  0  0  0  0  0  0
    0.0000   -2.4750    0.0000 C   0  0  0  0  0  0  0  0  0  0  0  0
   -0.7145   -2.8875    0.0000 C   0  0  0  0  0  0  0  0  0  0  0  0
   -1.4289   -2.4750    0.0000 C   0  0  0  0  0  0  0  0  0  0  0  0
    0.7145   -1.2375    0.0000 C   0  0  0  0  0  0  0  0  0  0  0  0
    0.7145   -0.4125    0.0000 C   0  0  0  0  0  0  0  0  0  0  0  0
    0.0000    0.0000    0.0000 O   0  0  0  0  0  0  0  0  0  0  0  0
    1.4289    0.0000    0.0000 C   0  0  0  0  0  0  0  0  0  0  0  0
    2.1434   -0.4125    0.0000 C   0  0  0  0  0  0  0  0  0  0  0  0
    2.8579    0.0000    0.0000 N   0  0  0  0  0  0  0  0  0  0  0  0
    3.5724   -0.4125    0.0000 C   0  0  0  0  0  0  0  0  0  0  0  0
    3.5724   -1.2375    0.0000 C   0  0  0  0  0  0  0  0  0  0  0  0
    2.8579   -1.6500    0.0000 C   0  0  0  0  0  0  0  0  0  0  0  0
    2.1434   -1.2375    0.0000 C   0  0  0  0  0  0  0  0  0  0  0  0
    1.4289   -1.6500    0.0000 C   0  0  0  0  0  0  0  0  0  0  0  0
  1  2  1  0  0  0  0
  2  3  1  0  0  0  0
  3  4  2  0  0  0  0
  4  5  1  0  0  0  0
  4  6  1  0  0  0  0
  6  7  2  0  0  0  0
  7  8  1  0  0  0  0
  8  9  2  0  0  0  0
  3  9  1  0  0  0  0
  6 10  1  0  0  0  0
 10 11  2  0  0  0  0
 11 12  1  0  0  0  0
 11 13  1  0  0  0  0
 13 14  2  0  0  0  0
 14 15  1  0  0  0  0
 15 16  1  0  0  0  0
 16 17  1  0  0  0  0
 17 18  1  0  0  0  0
 18 19  1  0  0  0  0
 14 19  1  0  0  0  0
 19 20  2  0  0  0  0
 10 20  1  0  0  0  0
M  END
> <ID>
CPD_5147

$$$$
CPD_5152
  Mrv1822 09091914012D          

 25 26  0  0  0  0            999 V2000
   -0.7145   -3.7125    0.0000 C   0  0  0  0  0  0  0  0  0  0  0  0
   -0.7145   -2.8875    0.0000 O   0  0  0  0  0  0  0  0  0  0  0  0
    0.0000   -2.4750    0.0000 C   0  0  0  0  0  0  0  0  0  0  0  0
    0.0000   -1.6500    0.0000 C   0  0  0  0  0  0  0  0  0  0  0  0
   -0.7145   -1.2375    0.0000 N   0  0  0  0  0  0  0  0  0  0  0  0
    0.7145   -1.2375    0.0000 C   0  0  0  0  0  0  0  0  0  0  0  0
    1.4289   -1.6500    0.0000 C   0  0  0  0  0  0  0  0  0  0  0  0
    1.4289   -2.4750    0.0000 C   0  0  0  0  0  0  0  0  0  0  0  0
    0.7145   -2.8875    0.0000 C   0  0  0  0  0  0  0  0  0  0  0  0
    0.7145   -0.4125    0.0000 C   0  0  0  0  0  0  0  0  0  0  0  0
    0.0000    0.0000    0.0000 C   0  0  0  0  0  0  0  0  0  0  0  0
    0.0000    0.8250    0.0000 C   0  0  0  0  0  0  0  0  0  0  0  0
    0.7145    1.2375    0.0000 C   0  0  0  0  0  0  0  0  0  0  0  0
    1.4289    0.8250    0.0000 N   0  0  0  0  0  0  0  0  0  0  0  0
    1.4289    0.0000    0.0000 C   0  0  0  0  0  0  0  0  0  0  0  0
    2.1434   -0.4125    0.0000 N   0  0  0  0  0  0  0  0  0  0  0  0
    2.1434   -1.2375    0.0000 C   0  0  0  0  0  0  0  0  0  0  0  0
    2.8579   -1.6500    0.0000 C   0  0  0  0  0  0  0  0  0  0  0  0
    3.5724   -1.2375    0.0000 N   0  0  0  0  0  0  0  0  0  0  0  0
    3.5724   -0.4125    0.0000 C   0  0  0  0  0  0  0  0  0  0  0  0
    4.2868   -1.6500    0.0000 C   0  0  0  0  0  0  0  0  0  0  0  0
   -0.7145    1.2375    0.0000 C   0  0  0  0  0  0  0  0  0  0  0  0
   -1.4289    1.6500    0.0000 F   0  0  0  0  0  0  0  0  0  0  0  0
   -0.3020    1.9520    0.0000 F   0  0  0  0  0  0  0  0  0  0  0  0
   -1.1270    0.5230    0.0000 F   0  0  0  0  0  0  0  0  0  0  0  0
  1  2  1  0  0  0  0
  2  3  1  0  0  0  0
  3  4  2  0  0  0  0
  4  5  1  0  0  0  0
  4  6  1  0  0  0  0
  6  7  2  0  0  0  0
  7  8  1  0  0  0  0
  8  9  2  0  0  0  0
  3  9  1  0  0  0  0
  6 10  1  0  0  0  0
 10 11  2  0  0  0  0
 11 12  1  0  0  0  0
 12 13  2  0  0  0  0
 13 14  1  0  0  0  0
 14 15  2  0  0  0  0
 10 15  1  0  0  0  0
 15 16  1  0  0  0  0
 16 17  1  0  0  0  0
 17 18  1  0  0  0  0
 18 19  1  0  0  0  0
 19 20  1  0  0  0  0
 19 21  1  0  0  0  0
 12 22  1  0  0  0  0
 22 23  1  0  0  0  0
 22 24  1  0  0  0  0
 22 25  1  0  0  0  0
M  END
> <ID>
CPD_5152

$$$$
CPD_5157
  Mrv1822 09091914012D          

 28 30  0  0  0  0            999 V2000
   -1.4289   -0.0000    0.0000 C   0  0  0  0  0  0  0  0  0  0  0  0
   -0.7145   -0.4125    0.0000 C   0  0  0  0  0  0  0  0  0  0  0  0
    0.0000   -0.0000    0.0000 C   0  0  0  0  0  0  0  0  0  0  0  0
   -0.7145   -1.2375    0.0000 N   0  0  0  0  0  0  0  0  0  0  0  0
    0.0000   -1.6500    0.0000 C   0  0  0  0  0  0  0  0  0  0  0  0
    0.7145   -1.2375    0.0000 O   0  0  0  0  0  0  0  0  0  0  0  0
    0.0000   -2.4750    0.0000 C   0  0  0  0  0  0  0  0  0  0  0  0
    0.7145   -2.8875    0.0000 C   0  0  0  0  0  0  0  0  0  0  0  0
    0.7145   -3.7125    0.0000 C   0  0  0  0  0  0  0  0  0  0  0  0
    0.0000   -4.1250    0.0000 C   0  0  0  0  0  0  0  0  0  0  0  0
   -0.7145   -3.7125    0.0000 C   0  0  0  0  0  0  0  0  0  0  0  0
   -1.4289   -4.1250    0.0000 F   0  0  0  0  0  0  0  0  0  0  0  0
   -0.7145   -2.8875    0.0000 C   0  0  0  0  0  0  0  0  0  0  0  0
    1.4289   -4.1250    0.0000 C   0  0  0  0  0  0  0  0  0  0  0  0
    2.1434   -3.7125    0.0000 C   0  0  0  0  0  0  0  0  0  0  0  0
    2.1434   -2.8875    0.0000 C   0  0  0  0  0  0  0  0  0  0  0  0
    2.8579   -2.4750    0.0000 C   0  0  0  0  0  0  0  0  0  0  0  0
    2.8579   -1.6500    0.0000 C   0  0  0  0  0  0  0  0  0  0  0  0
    3.5724   -1.2375    0.0000 C   0  0  0  0  0  0  0  0  0  0  0  0
    4.2868   -1.6500    0.0000 C   0  0  0  0  0  0  0  0  0  0  0  0
    5.0013   -1.2375    0.0000 O   0  0  0  0  0  0  0  0  0  0  0  0
    4.2868   -2.4750    0.0000 C   0  0  0  0  0  0  0  0  0  0  0  0
    3.5724   -2.8875    0.0000 C   0  0  0  0  0  0  0  0  0  0  0  0
    2.8579   -4.1250    0.0000 C   0  0  0  0  0  0  0  0  0  0  0  0
    2.8579   -4.9500    0.0000 C   0  0  0  0  0  0  0  0  0  0  0  0
    3.5724   -5.3625    0.0000 Br  0  0  0  0  0  0  0  0  0  0  0  0
    2.1434   -5.3625    0.0000 C   0  0  0  0  0  0  0  0  0  0  0  0
    1.4289   -4.9500    0.0000 C   0  0  0  0  0  0  0  0  0  0  0  0
  1  2  1  0  0  0  0
  2  3  1  0  0  0  0
  2  4  1  0  0  0  0
  4  5  1  0  0  0  0
  5  6  2  0  0  0  0
  5  7  1  0  0  0  0
  7  8  2  0  0  0  0
  8  9  1  0  0  0  0
  9 10  2  0  0  0  0
 10 11  1  0  0  0  0
 11 12  1  0  0  0  0
 11 13  2  0  0  0  0
  7 13  1  0  0  0  0
  9 14  1  0  0  0  0
 14 15  2  0  0  0  0
 15 16  1  0  0  0  0
 16 17  1  0  0  0  0
 17 18  2  0  0  0  0
 18 19  1  0  0  0  0
 19 20  2  0  0  0  0
 20 21  1  0  0  0  0
 20 22  1  0  0  0  0
 22 23  2  0  0  0  0
 17 23  1  0  0  0  0
 15 24  1  0  0  0  0
 24 25  2  0  0  0  0
 25 26  1  0  0  0  0
 25 27  1  0  0  0  0
 27 28  2  0  0  0  0
 14 28  1  0  0  0  0
M  END
> <ID>
CPD_5157

$$$$
CPD_5162
  Mrv1822 09091914012D          

 24 26  0  0  0  0            999 V2000
   -1.3222   -0.0616    0.0000 C   0  0  0  0  0  0  0  0  0  0  0  0
   -0.6078   -0.4741    0.0000 C   0  0  0  0  0  0  0  0  0  0  0  0
   -0.6078   -1.2991    0.0000 C   0  0  0  0  0  0  0  0  0  0  0  0
    0.1067   -1.7116    0.0000 C   0  0  0  0  0  0  0  0  0  0  0  0
    0.1067   -2.5366    0.0000 N   0  0  0  0  0  0  0  0  0  0  0  0
    0.7741   -3.0215    0.0000 C   0  0  0  0  0  0  0  0  0  0  0  0
    0.5192   -3.8062    0.0000 C   0  0  0  0  0  0  0  0  0  0  0  0
   -0.3058   -3.8062    0.0000 C   0  0  0  0  0  0  0  0  0  0  0  0
   -0.5607   -3.0215    0.0000 N   0  0  0  0  0  0  0  0  0  0  0  0
    1.0041   -4.4736    0.0000 C   0  0  0  0  0  0  0  0  0  0  0  0
    1.8246   -4.3874    0.0000 C   0  0  0  0  0  0  0  0  0  0  0  0
    2.1602   -3.6337    0.0000 C   0  0  0  0  0  0  0  0  0  0  0  0
    2.9806   -3.5474    0.0000 C   0  0  0  0  0  0  0  0  0  0  0  0
    3.3162   -2.7938    0.0000 C   0  0  0  0  0  0  0  0  0  0  0  0
    4.1367   -2.7075    0.0000 C   0  0  0  0  0  0  0  0  0  0  0  0
    4.6216   -3.3750    0.0000 C   0  0  0  0  0  0  0  0  0  0  0  0
    5.4421   -3.2887    0.0000 O   0  0  0  0  0  0  0  0  0  0  0  0
    4.2861   -4.1286    0.0000 C   0  0  0  0  0  0  0  0  0  0  0  0
    3.4656   -4.2149    0.0000 C   0  0  0  0  0  0  0  0  0  0  0  0
    2.3095   -5.0548    0.0000 C   0  0  0  0  0  0  0  0  0  0  0  0
    1.9740   -5.8085    0.0000 C   0  0  0  0  0  0  0  0  0  0  0  0
    2.4589   -6.4759    0.0000 Br  0  0  0  0  0  0  0  0  0  0  0  0
    1.1535   -5.8947    0.0000 C   0  0  0  0  0  0  0  0  0  0  0  0
    0.6686   -5.2273    0.0000 C   0  0  0  0  0  0  0  0  0  0  0  0
  1  2  1  0  0  0  0
  2  3  1  0  0  0  0
  3  4  1  0  0  0  0
  4  5  1  0  0  0  0
  5  6  1  0  0  0  0
  6  7  2  0  0  0  0
  7  8  1  0  0  0  0
  8  9  2  0  0  0  0
  5  9  1  0  0  0  0
  7 10  1  0  0  0  0
 10 11  2  0  0  0  0
 11 12  1  0  0  0  0
 12 13  1  0  0  0  0
 13 14  2  0  0  0  0
 14 15  1  0  0  0  0
 15 16  2  0  0  0  0
 16 17  1  0  0  0  0
 16 18  1  0  0  0  0
 18 19  2  0  0  0  0
 13 19  1  0  0  0  0
 11 20  1  0  0  0  0
 20 21  2  0  0  0  0
 21 22  1  0  0  0  0
 21 23  1  0  0  0  0
 23 24  2  0  0  0  0
 10 24  1  0  0  0  0
M  END
> <ID>
CPD_5162

$$$$
CPD_5167
  Mrv1822 09091914012D          

 16 17  0  0  0  0            999 V2000
    0.7145   -0.4125    0.0000 C   0  0  0  0  0  0  0  0  0  0  0  0
    0.7145   -1.2375    0.0000 C   0  0  0  0  0  0  0  0  0  0  0  0
    1.4289   -1.6500    0.0000 C   0  0  0  0  0  0  0  0  0  0  0  0
    1.4289   -2.4750    0.0000 C   0  0  0  0  0  0  0  0  0  0  0  0
    2.1434   -2.8875    0.0000 N   0  0  0  0  0  0  0  0  0  0  0  0
    0.7145   -2.8875    0.0000 C   0  0  0  0  0  0  0  0  0  0  0  0
    0.7145   -3.7125    0.0000 O   0  0  0  0  0  0  0  0  0  0  0  0
    0.0000   -2.4750    0.0000 C   0  0  0  0  0  0  0  0  0  0  0  0
    0.0000   -1.6500    0.0000 C   0  0  0  0  0  0  0  0  0  0  0  0
    2.1434   -1.2375    0.0000 C   0  0  0  0  0  0  0  0  0  0  0  0
    2.1434   -0.4125    0.0000 N   0  0  0  0  0  0  0  0  0  0  0  0
    2.8579   -0.0000    0.0000 C   0  0  0  0  0  0  0  0  0  0  0  0
    3.5724   -0.4125    0.0000 C   0  0  0  0  0  0  0  0  0  0  0  0
    3.5724   -1.2375    0.0000 C   0  0  0  0  0  0  0  0  0  0  0  0
    4.2868   -1.6500    0.0000 Br  0  0  0  0  0  0  0  0  0  0  0  0
    2.8579   -1.6500    0.0000 C   0  0  0  0  0  0  0  0  0  0  0  0
  1  2  1  0  0  0  0
  2  3  2  0  0  0  0
  3  4  1  0  0  0  0
  4  5  1  0  0  0  0
  4  6  2  0  0  0  0
  6  7  1  0  0  0  0
  6  8  1  0  0  0  0
  8  9  2  0  0  0  0
  2  9  1  0  0  0  0
  3 10  1  0  0  0  0
 10 11  2  0  0  0  0
 11 12  1  0  0  0  0
 12 13  2  0  0  0  0
 13 14  1  0  0  0  0
 14 15  1  0  0  0  0
 14 16  2  0  0  0  0
 10 16  1  0  0  0  0
M  END
> <ID>
CPD_5167

$$$$
CPD_5172
  Mrv1822 09091914012D          

 20 22  0  0  0  0            999 V2000
    2.8579    0.8250    0.0000 C   0  0  0  0  0  0  0  0  0  0  0  0
    2.1434    1.2375    0.0000 C   0  0  0  0  0  0  0  0  0  0  0  0
    1.4289    0.8250    0.0000 C   0  0  0  0  0  0  0  0  0  0  0  0
    0.7145    1.2375    0.0000 C   0  0  0  0  0  0  0  0  0  0  0  0
    0.0000    0.8250    0.0000 N   0  0  0  0  0  0  0  0  0  0  0  0
    0.7145    2.0625    0.0000 C   0  0  0  0  0  0  0  0  0  0  0  0
    0.0000    2.4750    0.0000 O   0  0  0  0  0  0  0  0  0  0  0  0
    1.4289    2.4750    0.0000 C   0  0  0  0  0  0  0  0  0  0  0  0
    2.1434    2.0625    0.0000 C   0  0  0  0  0  0  0  0  0  0  0  0
    1.4289    0.0000    0.0000 C   0  0  0  0  0  0  0  0  0  0  0  0
    2.1434   -0.4125    0.0000 C   0  0  0  0  0  0  0  0  0  0  0  0
    2.8579    0.0000    0.0000 C   0  0  0  0  0  0  0  0  0  0  0  0
    3.5724   -0.4125    0.0000 C   0  0  0  0  0  0  0  0  0  0  0  0
    4.2868   -0.0000    0.0000 Br  0  0  0  0  0  0  0  0  0  0  0  0
    3.5724   -1.2375    0.0000 C   0  0  0  0  0  0  0  0  0  0  0  0
    2.8579   -1.6500    0.0000 N   0  0  0  0  0  0  0  0  0  0  0  0
    2.1434   -1.2375    0.0000 C   0  0  0  0  0  0  0  0  0  0  0  0
    1.4289   -1.6500    0.0000 C   0  0  0  0  0  0  0  0  0  0  0  0
    0.7145   -1.2375    0.0000 C   0  0  0  0  0  0  0  0  0  0  0  0
    0.7145   -0.4125    0.0000 C   0  0  0  0  0  0  0  0  0  0  0  0
  1  2  1  0  0  0  0
  2  3  2  0  0  0  0
  3  4  1  0  0  0  0
  4  5  1  0  0  0  0
  4  6  2  0  0  0  0
  6  7  1  0  0  0  0
  6  8  1  0  0  0  0
  8  9  2  0  0  0  0
  2  9  1  0  0  0  0
  3 10  1  0  0  0  0
 10 11  2  0  0  0  0
 11 12  1  0  0  0  0
 12 13  2  0  0  0  0
 13 14  1  0  0  0  0
 13 15  1  0  0  0  0
 15 16  2  0  0  0  0
 16 17  1  0  0  0  0
 11 17  1  0  0  0  0
 17 18  2  0  0  0  0
 18 19  1  0  0  0  0
 19 20  2  0  0  0  0
 10 20  1  0  0  0  0
M  END
> <ID>
CPD_5172

$$$$
CPD_5177
  Mrv1822 09091914012D          

 37 40  0  0  0  0            999 V2000
   -0.7145   -2.8875    0.0000 C   0  0  0  0  0  0  0  0  0  0  0  0
    0.0000   -2.4750    0.0000 C   0  0  0  0  0  0  0  0  0  0  0  0
    0.0000   -1.6500    0.0000 O   0  0  0  0  0  0  0  0  0  0  0  0
    0.7145   -1.2375    0.0000 C   0  0  0  0  0  0  0  0  0  0  0  0
    0.7145   -0.4125    0.0000 C   0  0  0  0  0  0  0  0  0  0  0  0
    0.0000    0.0000    0.0000 O   0  0  0  0  0  0  0  0  0  0  0  0
   -0.7145   -0.4125    0.0000 C   0  0  0  0  0  0  0  0  0  0  0  0
   -1.4289    0.0000    0.0000 C   0  0  0  0  0  0  0  0  0  0  0  0
    1.4289    0.0000    0.0000 C   0  0  0  0  0  0  0  0  0  0  0  0
    2.1434   -0.4125    0.0000 C   0  0  0  0  0  0  0  0  0  0  0  0
    2.8579    0.0000    0.0000 C   0  0  0  0  0  0  0  0  0  0  0  0
    2.8579    0.8250    0.0000 O   0  0  0  0  0  0  0  0  0  0  0  0
    3.5724   -0.4125    0.0000 N   0  0  0  0  0  0  0  0  0  0  0  0
    4.2868   -0.0000    0.0000 C   0  0  0  0  0  0  0  0  0  0  0  0
    5.0013   -0.4125    0.0000 C   0  0  0  0  0  0  0  0  0  0  0  0
    5.7158   -0.0000    0.0000 C   0  0  0  0  0  0  0  0  0  0  0  0
    6.4302   -0.4125    0.0000 C   0  0  0  0  0  0  0  0  0  0  0  0
    6.4302   -1.2375    0.0000 C   0  0  0  0  0  0  0  0  0  0  0  0
    5.7158   -1.6500    0.0000 C   0  0  0  0  0  0  0  0  0  0  0  0
    5.0013   -1.2375    0.0000 C   0  0  0  0  0  0  0  0  0  0  0  0
    7.1447   -1.6500    0.0000 C   0  0  0  0  0  0  0  0  0  0  0  0
    7.8592   -1.2375    0.0000 C   0  0  0  0  0  0  0  0  0  0  0  0
    8.5737   -1.6500    0.0000 C   0  0  0  0  0  0  0  0  0  0  0  0
    8.5737   -2.4750    0.0000 C   0  0  0  0  0  0  0  0  0  0  0  0
    9.2881   -2.8875    0.0000 C   0  0  0  0  0  0  0  0  0  0  0  0
   10.0026   -3.3000    0.0000 N   0  0  0  0  0  0  0  0  0  0  0  0
    7.8592   -2.8875    0.0000 C   0  0  0  0  0  0  0  0  0  0  0  0
    7.8592   -3.7125    0.0000 F   0  0  0  0  0  0  0  0  0  0  0  0
    7.1447   -2.4750    0.0000 C   0  0  0  0  0  0  0  0  0  0  0  0
    6.4302   -2.8875    0.0000 O   0  0  0  0  0  0  0  0  0  0  0  0
    6.4302   -3.7125    0.0000 C   0  0  0  0  0  0  0  0  0  0  0  0
    5.7158   -4.1250    0.0000 C   0  0  0  0  0  0  0  0  0  0  0  0
    3.5724   -1.2375    0.0000 C   0  0  0  0  0  0  0  0  0  0  0  0
    4.2868   -1.6500    0.0000 S   0  0  0  0  0  0  0  0  0  0  0  0
    2.8579   -1.6500    0.0000 N   0  0  0  0  0  0  0  0  0  0  0  0
    2.1434   -1.2375    0.0000 C   0  0  0  0  0  0  0  0  0  0  0  0
    1.4289   -1.6500    0.0000 C   0  0  0  0  0  0  0  0  0  0  0  0
  1  2  1  0  0  0  0
  2  3  1  0  0  0  0
  3  4  1  0  0  0  0
  4  5  2  0  0  0  0
  5  6  1  0  0  0  0
  6  7  1  0  0  0  0
  7  8  1  0  0  0  0
  5  9  1  0  0  0  0
  9 10  2  0  0  0  0
 10 11  1  0  0  0  0
 11 12  2  0  0  0  0
 11 13  1  0  0  0  0
 13 14  1  0  0  0  0
 14 15  1  0  0  0  0
 15 16  2  0  0  0  0
 16 17  1  0  0  0  0
 17 18  2  0  0  0  0
 18 19  1  0  0  0  0
 19 20  2  0  0  0  0
 15 20  1  0  0  0  0
 18 21  1  0  0  0  0
 21 22  2  0  0  0  0
 22 23  1  0  0  0  0
 23 24  2  0  0  0  0
 24 25  1  0  0  0  0
 25 26  3  0  0  0  0
 24 27  1  0  0  0  0
 27 28  1  0  0  0  0
 27 29  2  0  0  0  0
 21 29  1  0  0  0  0
 29 30  1  0  0  0  0
 30 31  1  0  0  0  0
 31 32  1  0  0  0  0
 13 33  1  0  0  0  0
 33 34  2  0  0  0  0
 33 35  1  0  0  0  0
 35 36  1  0  0  0  0
 10 36  1  0  0  0  0
 36 37  2  0  0  0  0
  4 37  1  0  0  0  0
M  END
> <ID>
CPD_5177

$$$$
CPD_5182
  Mrv1822 09091914012D          

 36 40  0  0  0  0            999 V2000
   -1.2764    4.2432    0.0000 C   0  0  0  0  0  0  0  0  0  0  0  0
   -0.4694    4.0717    0.0000 C   0  0  0  0  0  0  0  0  0  0  0  0
   -0.2144    3.2871    0.0000 O   0  0  0  0  0  0  0  0  0  0  0  0
    0.5925    3.1155    0.0000 C   0  0  0  0  0  0  0  0  0  0  0  0
    0.8475    2.3309    0.0000 C   0  0  0  0  0  0  0  0  0  0  0  0
    0.2954    1.7178    0.0000 O   0  0  0  0  0  0  0  0  0  0  0  0
    0.5504    0.9332    0.0000 C   0  0  0  0  0  0  0  0  0  0  0  0
   -0.0017    0.3201    0.0000 C   0  0  0  0  0  0  0  0  0  0  0  0
    1.6544    2.1594    0.0000 C   0  0  0  0  0  0  0  0  0  0  0  0
    2.2065    2.7725    0.0000 C   0  0  0  0  0  0  0  0  0  0  0  0
    1.9515    3.5571    0.0000 C   0  0  0  0  0  0  0  0  0  0  0  0
    2.5036    4.1702    0.0000 N   0  0  0  0  0  0  0  0  0  0  0  0
    3.3105    3.9987    0.0000 C   0  0  0  0  0  0  0  0  0  0  0  0
    3.8626    4.6118    0.0000 S   0  0  0  0  0  0  0  0  0  0  0  0
    3.5655    3.2141    0.0000 N   0  0  0  0  0  0  0  0  0  0  0  0
    4.3724    3.0425    0.0000 C   0  0  0  0  0  0  0  0  0  0  0  0
    4.6274    2.2579    0.0000 C   0  0  0  0  0  0  0  0  0  0  0  0
    5.4344    2.0864    0.0000 C   0  0  0  0  0  0  0  0  0  0  0  0
    5.6893    1.3018    0.0000 C   0  0  0  0  0  0  0  0  0  0  0  0
    5.1373    0.6887    0.0000 C   0  0  0  0  0  0  0  0  0  0  0  0
    4.3303    0.8602    0.0000 C   0  0  0  0  0  0  0  0  0  0  0  0
    4.0753    1.6448    0.0000 C   0  0  0  0  0  0  0  0  0  0  0  0
    5.3922   -0.0960    0.0000 C   0  0  0  0  0  0  0  0  0  0  0  0
    6.1768   -0.3509    0.0000 C   0  0  0  0  0  0  0  0  0  0  0  0
    6.8913    0.0616    0.0000 C   0  0  0  0  0  0  0  0  0  0  0  0
    7.6058   -0.3509    0.0000 N   0  0  0  0  0  0  0  0  0  0  0  0
    7.6058   -1.1759    0.0000 N   0  0  0  0  0  0  0  0  0  0  0  0
    6.8913   -1.5884    0.0000 C   0  0  0  0  0  0  0  0  0  0  0  0
    6.8913   -2.4134    0.0000 O   0  0  0  0  0  0  0  0  0  0  0  0
    6.1768   -1.1759    0.0000 N   0  0  0  0  0  0  0  0  0  0  0  0
    5.3922   -1.4308    0.0000 N   0  0  0  0  0  0  0  0  0  0  0  0
    4.9073   -0.7634    0.0000 C   0  0  0  0  0  0  0  0  0  0  0  0
    4.0823   -0.7634    0.0000 C   0  0  0  0  0  0  0  0  0  0  0  0
    3.0134    2.6010    0.0000 C   0  0  0  0  0  0  0  0  0  0  0  0
    3.2684    1.8163    0.0000 O   0  0  0  0  0  0  0  0  0  0  0  0
    1.1446    3.7286    0.0000 C   0  0  0  0  0  0  0  0  0  0  0  0
  1  2  1  0  0  0  0
  2  3  1  0  0  0  0
  3  4  1  0  0  0  0
  4  5  2  0  0  0  0
  5  6  1  0  0  0  0
  6  7  1  0  0  0  0
  7  8  1  0  0  0  0
  5  9  1  0  0  0  0
  9 10  2  0  0  0  0
 10 11  1  0  0  0  0
 11 12  1  0  0  0  0
 12 13  1  0  0  0  0
 13 14  2  0  0  0  0
 13 15  1  0  0  0  0
 15 16  1  0  0  0  0
 16 17  1  0  0  0  0
 17 18  2  0  0  0  0
 18 19  1  0  0  0  0
 19 20  2  0  0  0  0
 20 21  1  0  0  0  0
 21 22  2  0  0  0  0
 17 22  1  0  0  0  0
 20 23  1  0  0  0  0
 23 24  2  0  0  0  0
 24 25  1  0  0  0  0
 25 26  2  0  0  0  0
 26 27  1  0  0  0  0
 27 28  1  0  0  0  0
 28 29  2  0  0  0  0
 28 30  1  0  0  0  0
 24 30  1  0  0  0  0
 30 31  1  0  0  0  0
 31 32  2  0  0  0  0
 23 32  1  0  0  0  0
 32 33  1  0  0  0  0
 15 34  1  0  0  0  0
 10 34  1  0  0  0  0
 34 35  2  0  0  0  0
 11 36  2  0  0  0  0
  4 36  1  0  0  0  0
M  END
> <ID>
CPD_5182

$$$$
CPD_5187
  Mrv1822 09091914012D          

 29 30  0  0  0  0            999 V2000
    1.3184   -5.3625    0.0000 C   0  0  0  0  0  0  0  0  0  0  0  0
    2.1434   -5.3625    0.0000 C   0  0  0  0  0  0  0  0  0  0  0  0
    2.5559   -4.6480    0.0000 C   0  0  0  0  0  0  0  0  0  0  0  0
    3.3809   -4.6480    0.0000 N   0  0  0  0  0  0  0  0  0  0  0  0
    3.7934   -5.3625    0.0000 C   0  0  0  0  0  0  0  0  0  0  0  0
    4.6184   -5.3625    0.0000 C   0  0  0  0  0  0  0  0  0  0  0  0
    5.0309   -6.0770    0.0000 C   0  0  0  0  0  0  0  0  0  0  0  0
    3.7934   -3.9336    0.0000 C   0  0  0  0  0  0  0  0  0  0  0  0
    3.3809   -3.2191    0.0000 O   0  0  0  0  0  0  0  0  0  0  0  0
    4.6184   -3.9336    0.0000 C   0  0  0  0  0  0  0  0  0  0  0  0
    5.0309   -3.2191    0.0000 C   0  0  0  0  0  0  0  0  0  0  0  0
    5.8559   -3.2191    0.0000 C   0  0  0  0  0  0  0  0  0  0  0  0
    6.2684   -3.9336    0.0000 C   0  0  0  0  0  0  0  0  0  0  0  0
    5.8559   -4.6480    0.0000 C   0  0  0  0  0  0  0  0  0  0  0  0
    5.0309   -4.6480    0.0000 C   0  0  0  0  0  0  0  0  0  0  0  0
    7.0934   -3.9336    0.0000 C   0  0  0  0  0  0  0  0  0  0  0  0
    7.5059   -3.2191    0.0000 C   0  0  0  0  0  0  0  0  0  0  0  0
    8.3309   -3.2191    0.0000 C   0  0  0  0  0  0  0  0  0  0  0  0
    8.7434   -3.9336    0.0000 C   0  0  0  0  0  0  0  0  0  0  0  0
    9.5684   -3.9336    0.0000 N   0  0  0  0  0  0  0  0  0  0  0  0
    9.9809   -3.2191    0.0000 C   0  0  0  0  0  0  0  0  0  0  0  0
   10.8059   -3.2191    0.0000 C   0  0  0  0  0  0  0  0  0  0  0  0
    9.5684   -2.5046    0.0000 O   0  0  0  0  0  0  0  0  0  0  0  0
    8.3309   -4.6480    0.0000 C   0  0  0  0  0  0  0  0  0  0  0  0
    7.5059   -4.6480    0.0000 C   0  0  0  0  0  0  0  0  0  0  0  0
    8.7434   -5.3625    0.0000 C   0  0  0  0  0  0  0  0  0  0  0  0
    9.1559   -6.0770    0.0000 F   0  0  0  0  0  0  0  0  0  0  0  0
    8.0289   -5.7750    0.0000 F   0  0  0  0  0  0  0  0  0  0  0  0
    9.4579   -4.9500    0.0000 F   0  0  0  0  0  0  0  0  0  0  0  0
  1  2  1  0  0  0  0
  2  3  1  0  0  0  0
  3  4  1  0  0  0  0
  4  5  1  0  0  0  0
  5  6  1  0  0  0  0
  6  7  1  0  0  0  0
  4  8  1  0  0  0  0
  8  9  2  0  0  0  0
  8 10  1  0  0  0  0
 10 11  2  0  0  0  0
 11 12  1  0  0  0  0
 12 13  2  0  0  0  0
 13 14  1  0  0  0  0
 14 15  2  0  0  0  0
 10 15  1  0  0  0  0
 13 16  1  0  0  0  0
 16 17  2  0  0  0  0
 17 18  1  0  0  0  0
 18 19  2  0  0  0  0
 19 20  1  0  0  0  0
 20 21  1  0  0  0  0
 21 22  1  0  0  0  0
 21 23  2  0  0  0  0
 19 24  1  0  0  0  0
 24 25  2  0  0  0  0
 16 25  1  0  0  0  0
 24 26  1  0  0  0  0
 26 27  1  0  0  0  0
 26 28  1  0  0  0  0
 26 29  1  0  0  0  0
M  END
> <ID>
CPD_5187

$$$$
CPD_5192
  Mrv1822 09091914012D          

 37 40  0  0  0  0            999 V2000
    0.0000   -2.4750    0.0000 C   0  0  0  0  0  0  0  0  0  0  0  0
    0.0000   -1.6500    0.0000 O   0  0  0  0  0  0  0  0  0  0  0  0
    0.7145   -1.2375    0.0000 C   0  0  0  0  0  0  0  0  0  0  0  0
    0.7145   -0.4125    0.0000 C   0  0  0  0  0  0  0  0  0  0  0  0
    1.4289    0.0000    0.0000 C   0  0  0  0  0  0  0  0  0  0  0  0
    2.1434   -0.4125    0.0000 C   0  0  0  0  0  0  0  0  0  0  0  0
    2.8579    0.0000    0.0000 N   0  0  0  0  0  0  0  0  0  0  0  0
    3.5724   -0.4125    0.0000 C   0  0  0  0  0  0  0  0  0  0  0  0
    3.5724   -1.2375    0.0000 C   0  0  0  0  0  0  0  0  0  0  0  0
    2.8579   -1.6500    0.0000 C   0  0  0  0  0  0  0  0  0  0  0  0
    2.8579   -2.4750    0.0000 C   0  0  0  0  0  0  0  0  0  0  0  0
    3.5724   -2.8875    0.0000 C   0  0  0  0  0  0  0  0  0  0  0  0
    3.5724   -3.7125    0.0000 C   0  0  0  0  0  0  0  0  0  0  0  0
    2.8579   -4.1250    0.0000 C   0  0  0  0  0  0  0  0  0  0  0  0
    2.8579   -4.9500    0.0000 N   0  0  0  0  0  0  0  0  0  0  0  0
    3.5724   -5.3625    0.0000 C   0  0  0  0  0  0  0  0  0  0  0  0
    3.5724   -6.1875    0.0000 C   0  0  0  0  0  0  0  0  0  0  0  0
    4.2868   -4.9500    0.0000 O   0  0  0  0  0  0  0  0  0  0  0  0
    2.1434   -3.7125    0.0000 C   0  0  0  0  0  0  0  0  0  0  0  0
    2.1434   -2.8875    0.0000 C   0  0  0  0  0  0  0  0  0  0  0  0
    1.4289   -4.1250    0.0000 C   0  0  0  0  0  0  0  0  0  0  0  0
    0.7145   -4.5375    0.0000 F   0  0  0  0  0  0  0  0  0  0  0  0
    1.0164   -3.4105    0.0000 F   0  0  0  0  0  0  0  0  0  0  0  0
    1.8414   -4.8395    0.0000 F   0  0  0  0  0  0  0  0  0  0  0  0
    2.1434   -1.2375    0.0000 C   0  0  0  0  0  0  0  0  0  0  0  0
    1.4289   -1.6500    0.0000 C   0  0  0  0  0  0  0  0  0  0  0  0
    4.2868   -1.6500    0.0000 S   0  0  0  0  0  0  0  0  0  0  0  0
    3.8743   -2.3645    0.0000 O   0  0  0  0  0  0  0  0  0  0  0  0
    4.6993   -0.9355    0.0000 O   0  0  0  0  0  0  0  0  0  0  0  0
    5.0013   -2.0625    0.0000 C   0  0  0  0  0  0  0  0  0  0  0  0
    5.7158   -1.6500    0.0000 C   0  0  0  0  0  0  0  0  0  0  0  0
    6.4302   -2.0625    0.0000 C   0  0  0  0  0  0  0  0  0  0  0  0
    7.1447   -1.6500    0.0000 F   0  0  0  0  0  0  0  0  0  0  0  0
    6.4302   -2.8875    0.0000 C   0  0  0  0  0  0  0  0  0  0  0  0
    5.7158   -3.3000    0.0000 C   0  0  0  0  0  0  0  0  0  0  0  0
    5.7158   -4.1250    0.0000 F   0  0  0  0  0  0  0  0  0  0  0  0
    5.0013   -2.8875    0.0000 C   0  0  0  0  0  0  0  0  0  0  0  0
  1  2  1  0  0  0  0
  2  3  1  0  0  0  0
  3  4  2  0  0  0  0
  4  5  1  0  0  0  0
  5  6  2  0  0  0  0
  6  7  1  0  0  0  0
  7  8  2  0  0  0  0
  8  9  1  0  0  0  0
  9 10  2  0  0  0  0
 10 11  1  0  0  0  0
 11 12  2  0  0  0  0
 12 13  1  0  0  0  0
 13 14  2  0  0  0  0
 14 15  1  0  0  0  0
 15 16  1  0  0  0  0
 16 17  1  0  0  0  0
 16 18  2  0  0  0  0
 14 19  1  0  0  0  0
 19 20  2  0  0  0  0
 11 20  1  0  0  0  0
 19 21  1  0  0  0  0
 21 22  1  0  0  0  0
 21 23  1  0  0  0  0
 21 24  1  0  0  0  0
 10 25  1  0  0  0  0
  6 25  1  0  0  0  0
 25 26  2  0  0  0  0
  3 26  1  0  0  0  0
  9 27  1  0  0  0  0
 27 28  2  0  0  0  0
 27 29  2  0  0  0  0
 27 30  1  0  0  0  0
 30 31  2  0  0  0  0
 31 32  1  0  0  0  0
 32 33  1  0  0  0  0
 32 34  2  0  0  0  0
 34 35  1  0  0  0  0
 35 36  1  0  0  0  0
 35 37  2  0  0  0  0
 30 37  1  0  0  0  0
M  END
> <ID>
CPD_5192

$$$$
CPD_5197
  Mrv1822 09091914012D          

 25 26  0  0  0  0            999 V2000
    1.4289    0.0000    0.0000 C   0  0  0  0  0  0  0  0  0  0  0  0
    0.7145   -0.4125    0.0000 O   0  0  0  0  0  0  0  0  0  0  0  0
    0.7145   -1.2375    0.0000 C   0  0  0  0  0  0  0  0  0  0  0  0
    0.0000   -1.6500    0.0000 C   0  0  0  0  0  0  0  0  0  0  0  0
    0.0000   -2.4750    0.0000 C   0  0  0  0  0  0  0  0  0  0  0  0
    0.7145   -2.8875    0.0000 C   0  0  0  0  0  0  0  0  0  0  0  0
    0.7145   -3.7125    0.0000 O   0  0  0  0  0  0  0  0  0  0  0  0
    0.0000   -4.1250    0.0000 C   0  0  0  0  0  0  0  0  0  0  0  0
    1.4289   -2.4750    0.0000 C   0  0  0  0  0  0  0  0  0  0  0  0
    1.4289   -1.6500    0.0000 C   0  0  0  0  0  0  0  0  0  0  0  0
    2.1434   -1.2375    0.0000 Br  0  0  0  0  0  0  0  0  0  0  0  0
    2.1434   -2.8875    0.0000 C   0  0  0  0  0  0  0  0  0  0  0  0
    2.8579   -2.4750    0.0000 C   0  0  0  0  0  0  0  0  0  0  0  0
    3.5724   -2.8875    0.0000 C   0  0  0  0  0  0  0  0  0  0  0  0
    3.5724   -3.7125    0.0000 C   0  0  0  0  0  0  0  0  0  0  0  0
    4.2868   -4.1250    0.0000 N   0  0  0  0  0  0  0  0  0  0  0  0
    5.0013   -3.7125    0.0000 C   0  0  0  0  0  0  0  0  0  0  0  0
    5.0013   -2.8875    0.0000 C   0  0  0  0  0  0  0  0  0  0  0  0
    5.7158   -4.1250    0.0000 O   0  0  0  0  0  0  0  0  0  0  0  0
    2.8579   -4.1250    0.0000 C   0  0  0  0  0  0  0  0  0  0  0  0
    2.1434   -3.7125    0.0000 C   0  0  0  0  0  0  0  0  0  0  0  0
    2.8579   -4.9500    0.0000 C   0  0  0  0  0  0  0  0  0  0  0  0
    2.8579   -5.7750    0.0000 F   0  0  0  0  0  0  0  0  0  0  0  0
    2.0329   -4.9500    0.0000 F   0  0  0  0  0  0  0  0  0  0  0  0
    3.6829   -4.9500    0.0000 F   0  0  0  0  0  0  0  0  0  0  0  0
  1  2  1  0  0  0  0
  2  3  1  0  0  0  0
  3  4  2  0  0  0  0
  4  5  1  0  0  0  0
  5  6  2  0  0  0  0
  6  7  1  0  0  0  0
  7  8  1  0  0  0  0
  6  9  1  0  0  0  0
  9 10  2  0  0  0  0
  3 10  1  0  0  0  0
 10 11  1  0  0  0  0
  9 12  1  0  0  0  0
 12 13  2  0  0  0  0
 13 14  1  0  0  0  0
 14 15  2  0  0  0  0
 15 16  1  0  0  0  0
 16 17  1  0  0  0  0
 17 18  1  0  0  0  0
 17 19  2  0  0  0  0
 15 20  1  0  0  0  0
 20 21  2  0  0  0  0
 12 21  1  0  0  0  0
 20 22  1  0  0  0  0
 22 23  1  0  0  0  0
 22 24  1  0  0  0  0
 22 25  1  0  0  0  0
M  END
> <ID>
CPD_5197

$$$$
CPD_5202
  Mrv1822 09091914012D          

 27 29  0  0  0  0            999 V2000
    4.2868    0.8250    0.0000 C   0  0  0  0  0  0  0  0  0  0  0  0
    4.2868   -0.0000    0.0000 N   0  0  0  0  0  0  0  0  0  0  0  0
    3.5724   -0.4125    0.0000 C   0  0  0  0  0  0  0  0  0  0  0  0
    2.8579    0.0000    0.0000 O   0  0  0  0  0  0  0  0  0  0  0  0
    3.5724   -1.2375    0.0000 C   0  0  0  0  0  0  0  0  0  0  0  0
    4.2868   -1.6500    0.0000 C   0  0  0  0  0  0  0  0  0  0  0  0
    4.2868   -2.4750    0.0000 C   0  0  0  0  0  0  0  0  0  0  0  0
    3.5724   -2.8875    0.0000 C   0  0  0  0  0  0  0  0  0  0  0  0
    2.8579   -2.4750    0.0000 C   0  0  0  0  0  0  0  0  0  0  0  0
    2.8579   -1.6500    0.0000 C   0  0  0  0  0  0  0  0  0  0  0  0
    5.0013   -1.2375    0.0000 C   0  0  0  0  0  0  0  0  0  0  0  0
    5.7158   -1.6500    0.0000 C   0  0  0  0  0  0  0  0  0  0  0  0
    5.7158   -2.4750    0.0000 N   0  0  0  0  0  0  0  0  0  0  0  0
    6.4302   -2.8875    0.0000 C   0  0  0  0  0  0  0  0  0  0  0  0
    7.1447   -2.4750    0.0000 O   0  0  0  0  0  0  0  0  0  0  0  0
    6.4302   -3.7125    0.0000 C   0  0  0  0  0  0  0  0  0  0  0  0
    7.1447   -4.1250    0.0000 C   0  0  0  0  0  0  0  0  0  0  0  0
    7.1447   -4.9500    0.0000 C   0  0  0  0  0  0  0  0  0  0  0  0
    6.4302   -5.3625    0.0000 C   0  0  0  0  0  0  0  0  0  0  0  0
    6.4302   -6.1875    0.0000 C   0  0  0  0  0  0  0  0  0  0  0  0
    5.7158   -4.9500    0.0000 C   0  0  0  0  0  0  0  0  0  0  0  0
    5.7158   -4.1250    0.0000 C   0  0  0  0  0  0  0  0  0  0  0  0
    6.4302   -1.2375    0.0000 C   0  0  0  0  0  0  0  0  0  0  0  0
    6.4302   -0.4125    0.0000 C   0  0  0  0  0  0  0  0  0  0  0  0
    5.7158   -0.0000    0.0000 C   0  0  0  0  0  0  0  0  0  0  0  0
    5.7158    0.8250    0.0000 C   0  0  0  0  0  0  0  0  0  0  0  0
    5.0013   -0.4125    0.0000 C   0  0  0  0  0  0  0  0  0  0  0  0
  1  2  1  0  0  0  0
  2  3  1  0  0  0  0
  3  4  2  0  0  0  0
  3  5  1  0  0  0  0
  5  6  2  0  0  0  0
  6  7  1  0  0  0  0
  7  8  2  0  0  0  0
  8  9  1  0  0  0  0
  9 10  2  0  0  0  0
  5 10  1  0  0  0  0
  6 11  1  0  0  0  0
 11 12  2  0  0  0  0
 12 13  1  0  0  0  0
 13 14  1  0  0  0  0
 14 15  2  0  0  0  0
 14 16  1  0  0  0  0
 16 17  2  0  0  0  0
 17 18  1  0  0  0  0
 18 19  2  0  0  0  0
 19 20  1  0  0  0  0
 19 21  1  0  0  0  0
 21 22  2  0  0  0  0
 16 22  1  0  0  0  0
 12 23  1  0  0  0  0
 23 24  2  0  0  0  0
 24 25  1  0  0  0  0
 25 26  1  0  0  0  0
 25 27  2  0  0  0  0
 11 27  1  0  0  0  0
M  END
> <ID>
CPD_5202

$$$$
CPD_5207
  Mrv1822 09091914012D          

 32 35  0  0  0  0            999 V2000
    5.6091    0.6402    0.0000 C   0  0  0  0  0  0  0  0  0  0  0  0
    5.6091   -0.1848    0.0000 N   0  0  0  0  0  0  0  0  0  0  0  0
    6.2765   -0.6697    0.0000 N   0  0  0  0  0  0  0  0  0  0  0  0
    6.0216   -1.4544    0.0000 C   0  0  0  0  0  0  0  0  0  0  0  0
    5.1966   -1.4544    0.0000 C   0  0  0  0  0  0  0  0  0  0  0  0
    4.9416   -0.6697    0.0000 C   0  0  0  0  0  0  0  0  0  0  0  0
    4.1570   -0.4148    0.0000 C   0  0  0  0  0  0  0  0  0  0  0  0
    3.9855    0.3922    0.0000 O   0  0  0  0  0  0  0  0  0  0  0  0
    3.5439   -0.9668    0.0000 O   0  0  0  0  0  0  0  0  0  0  0  0
    6.5065   -2.1218    0.0000 C   0  0  0  0  0  0  0  0  0  0  0  0
    7.3270   -2.0356    0.0000 C   0  0  0  0  0  0  0  0  0  0  0  0
    7.8119   -2.7030    0.0000 C   0  0  0  0  0  0  0  0  0  0  0  0
    7.4763   -3.4567    0.0000 C   0  0  0  0  0  0  0  0  0  0  0  0
    6.6558   -3.5429    0.0000 C   0  0  0  0  0  0  0  0  0  0  0  0
    6.1709   -2.8755    0.0000 C   0  0  0  0  0  0  0  0  0  0  0  0
    7.9613   -4.1241    0.0000 C   0  0  0  0  0  0  0  0  0  0  0  0
    7.6257   -4.8778    0.0000 C   0  0  0  0  0  0  0  0  0  0  0  0
    6.8052   -4.9640    0.0000 N   0  0  0  0  0  0  0  0  0  0  0  0
    6.4697   -5.7177    0.0000 C   0  0  0  0  0  0  0  0  0  0  0  0
    6.9546   -6.3851    0.0000 O   0  0  0  0  0  0  0  0  0  0  0  0
    5.6492   -5.8039    0.0000 C   0  0  0  0  0  0  0  0  0  0  0  0
    5.3136   -6.5576    0.0000 C   0  0  0  0  0  0  0  0  0  0  0  0
    4.4931   -6.6439    0.0000 C   0  0  0  0  0  0  0  0  0  0  0  0
    4.0082   -5.9764    0.0000 C   0  0  0  0  0  0  0  0  0  0  0  0
    3.1877   -6.0627    0.0000 C   0  0  0  0  0  0  0  0  0  0  0  0
    4.3438   -5.2227    0.0000 C   0  0  0  0  0  0  0  0  0  0  0  0
    5.1643   -5.1365    0.0000 C   0  0  0  0  0  0  0  0  0  0  0  0
    8.1106   -5.5452    0.0000 C   0  0  0  0  0  0  0  0  0  0  0  0
    8.9311   -5.4590    0.0000 C   0  0  0  0  0  0  0  0  0  0  0  0
    9.2667   -4.7053    0.0000 C   0  0  0  0  0  0  0  0  0  0  0  0
   10.0871   -4.6191    0.0000 C   0  0  0  0  0  0  0  0  0  0  0  0
    8.7817   -4.0379    0.0000 C   0  0  0  0  0  0  0  0  0  0  0  0
  1  2  1  0  0  0  0
  2  3  1  0  0  0  0
  3  4  2  0  0  0  0
  4  5  1  0  0  0  0
  5  6  2  0  0  0  0
  2  6  1  0  0  0  0
  6  7  1  0  0  0  0
  7  8  1  0  0  0  0
  7  9  2  0  0  0  0
  4 10  1  0  0  0  0
 10 11  2  0  0  0  0
 11 12  1  0  0  0  0
 12 13  2  0  0  0  0
 13 14  1  0  0  0  0
 14 15  2  0  0  0  0
 10 15  1  0  0  0  0
 13 16  1  0  0  0  0
 16 17  2  0  0  0  0
 17 18  1  0  0  0  0
 18 19  1  0  0  0  0
 19 20  2  0  0  0  0
 19 21  1  0  0  0  0
 21 22  2  0  0  0  0
 22 23  1  0  0  0  0
 23 24  2  0  0  0  0
 24 25  1  0  0  0  0
 24 26  1  0  0  0  0
 26 27  2  0  0  0  0
 21 27  1  0  0  0  0
 17 28  1  0  0  0  0
 28 29  2  0  0  0  0
 29 30  1  0  0  0  0
 30 31  1  0  0  0  0
 30 32  2  0  0  0  0
 16 32  1  0  0  0  0
M  END
> <ID>
CPD_5207

$$$$
CPD_5212
  Mrv1822 09091914012D          

 29 31  0  0  0  0            999 V2000
    2.7512   -5.0116    0.0000 N   0  0  0  0  0  0  0  0  0  0  0  0
    2.7512   -5.8366    0.0000 C   0  0  0  0  0  0  0  0  0  0  0  0
    3.4186   -6.3215    0.0000 N   0  0  0  0  0  0  0  0  0  0  0  0
    3.1637   -7.1062    0.0000 N   0  0  0  0  0  0  0  0  0  0  0  0
    2.3387   -7.1062    0.0000 C   0  0  0  0  0  0  0  0  0  0  0  0
    1.8538   -7.7736    0.0000 C   0  0  0  0  0  0  0  0  0  0  0  0
    1.0333   -7.6874    0.0000 C   0  0  0  0  0  0  0  0  0  0  0  0
    0.5484   -8.3548    0.0000 N   0  0  0  0  0  0  0  0  0  0  0  0
   -0.2721   -8.2686    0.0000 S   0  0  0  0  0  0  0  0  0  0  0  0
   -0.1859   -7.4481    0.0000 O   0  0  0  0  0  0  0  0  0  0  0  0
   -0.3584   -9.0890    0.0000 O   0  0  0  0  0  0  0  0  0  0  0  0
   -1.0926   -8.1823    0.0000 C   0  0  0  0  0  0  0  0  0  0  0  0
   -1.5775   -8.8498    0.0000 C   0  0  0  0  0  0  0  0  0  0  0  0
   -2.3980   -8.7635    0.0000 C   0  0  0  0  0  0  0  0  0  0  0  0
   -2.7336   -8.0098    0.0000 C   0  0  0  0  0  0  0  0  0  0  0  0
   -2.2486   -7.3424    0.0000 C   0  0  0  0  0  0  0  0  0  0  0  0
   -1.4282   -7.4286    0.0000 C   0  0  0  0  0  0  0  0  0  0  0  0
   -3.5541   -7.9236    0.0000 C   0  0  0  0  0  0  0  0  0  0  0  0
   -4.0390   -8.5911    0.0000 C   0  0  0  0  0  0  0  0  0  0  0  0
   -3.7034   -9.3447    0.0000 O   0  0  0  0  0  0  0  0  0  0  0  0
   -2.8829   -9.4310    0.0000 C   0  0  0  0  0  0  0  0  0  0  0  0
   -2.5474  -10.1846    0.0000 C   0  0  0  0  0  0  0  0  0  0  0  0
   -3.0323  -10.8521    0.0000 O   0  0  0  0  0  0  0  0  0  0  0  0
   -1.7269  -10.2709    0.0000 O   0  0  0  0  0  0  0  0  0  0  0  0
   -4.8595   -8.5048    0.0000 C   0  0  0  0  0  0  0  0  0  0  0  0
   -5.1950   -7.7511    0.0000 C   0  0  0  0  0  0  0  0  0  0  0  0
   -4.7101   -7.0837    0.0000 C   0  0  0  0  0  0  0  0  0  0  0  0
   -3.8896   -7.1699    0.0000 C   0  0  0  0  0  0  0  0  0  0  0  0
    2.0837   -6.3215    0.0000 S   0  0  0  0  0  0  0  0  0  0  0  0
  1  2  1  0  0  0  0
  2  3  2  0  0  0  0
  3  4  1  0  0  0  0
  4  5  2  0  0  0  0
  5  6  1  0  0  0  0
  6  7  1  0  0  0  0
  7  8  1  0  0  0  0
  8  9  1  0  0  0  0
  9 10  2  0  0  0  0
  9 11  2  0  0  0  0
  9 12  1  0  0  0  0
 12 13  2  0  0  0  0
 13 14  1  0  0  0  0
 14 15  2  0  0  0  0
 15 16  1  0  0  0  0
 16 17  2  0  0  0  0
 12 17  1  0  0  0  0
 15 18  1  0  0  0  0
 18 19  2  0  0  0  0
 19 20  1  0  0  0  0
 20 21  1  0  0  0  0
 21 22  1  0  0  0  0
 22 23  1  0  0  0  0
 22 24  2  0  0  0  0
 19 25  1  0  0  0  0
 25 26  2  0  0  0  0
 26 27  1  0  0  0  0
 27 28  2  0  0  0  0
 18 28  1  0  0  0  0
  5 29  1  0  0  0  0
  2 29  1  0  0  0  0
M  END
> <ID>
CPD_5212

$$$$
CPD_5217
  Mrv1822 09091914012D          

 28 30  0  0  0  0            999 V2000
   -0.7145    1.2375    0.0000 C   0  0  0  0  0  0  0  0  0  0  0  0
    0.0000    0.8250    0.0000 C   0  0  0  0  0  0  0  0  0  0  0  0
    0.0000   -0.0000    0.0000 C   0  0  0  0  0  0  0  0  0  0  0  0
    0.7145   -0.4125    0.0000 C   0  0  0  0  0  0  0  0  0  0  0  0
    0.7145   -1.2375    0.0000 C   0  0  0  0  0  0  0  0  0  0  0  0
    1.3819   -1.7224    0.0000 C   0  0  0  0  0  0  0  0  0  0  0  0
    1.1270   -2.5070    0.0000 S   0  0  0  0  0  0  0  0  0  0  0  0
    0.3020   -2.5070    0.0000 C   0  0  0  0  0  0  0  0  0  0  0  0
   -0.1830   -3.1745    0.0000 Br  0  0  0  0  0  0  0  0  0  0  0  0
    0.0470   -1.7224    0.0000 C   0  0  0  0  0  0  0  0  0  0  0  0
    2.1665   -1.4675    0.0000 C   0  0  0  0  0  0  0  0  0  0  0  0
    2.3381   -0.6605    0.0000 C   0  0  0  0  0  0  0  0  0  0  0  0
    3.1227   -0.4056    0.0000 C   0  0  0  0  0  0  0  0  0  0  0  0
    3.7358   -0.9576    0.0000 C   0  0  0  0  0  0  0  0  0  0  0  0
    3.5642   -1.7646    0.0000 C   0  0  0  0  0  0  0  0  0  0  0  0
    2.7796   -2.0195    0.0000 C   0  0  0  0  0  0  0  0  0  0  0  0
    4.5204   -0.7027    0.0000 S   0  0  0  0  0  0  0  0  0  0  0  0
    4.7753   -1.4873    0.0000 O   0  0  0  0  0  0  0  0  0  0  0  0
    4.2655    0.0820    0.0000 O   0  0  0  0  0  0  0  0  0  0  0  0
    5.3050   -0.4477    0.0000 N   0  0  0  0  0  0  0  0  0  0  0  0
    5.4765    0.3592    0.0000 C   0  0  0  0  0  0  0  0  0  0  0  0
    6.2612    0.6142    0.0000 C   0  0  0  0  0  0  0  0  0  0  0  0
    6.8743    0.0622    0.0000 C   0  0  0  0  0  0  0  0  0  0  0  0
    7.6812    0.2337    0.0000 N   0  0  0  0  0  0  0  0  0  0  0  0
    8.0937   -0.4808    0.0000 N   0  0  0  0  0  0  0  0  0  0  0  0
    7.5417   -1.0939    0.0000 C   0  0  0  0  0  0  0  0  0  0  0  0
    7.7132   -1.9009    0.0000 N   0  0  0  0  0  0  0  0  0  0  0  0
    6.7880   -0.7583    0.0000 S   0  0  0  0  0  0  0  0  0  0  0  0
  1  2  1  0  0  0  0
  2  3  1  0  0  0  0
  3  4  1  0  0  0  0
  4  5  1  0  0  0  0
  5  6  2  0  0  0  0
  6  7  1  0  0  0  0
  7  8  1  0  0  0  0
  8  9  1  0  0  0  0
  8 10  2  0  0  0  0
  5 10  1  0  0  0  0
  6 11  1  0  0  0  0
 11 12  2  0  0  0  0
 12 13  1  0  0  0  0
 13 14  2  0  0  0  0
 14 15  1  0  0  0  0
 15 16  2  0  0  0  0
 11 16  1  0  0  0  0
 14 17  1  0  0  0  0
 17 18  2  0  0  0  0
 17 19  2  0  0  0  0
 17 20  1  0  0  0  0
 20 21  1  0  0  0  0
 21 22  1  0  0  0  0
 22 23  1  0  0  0  0
 23 24  2  0  0  0  0
 24 25  1  0  0  0  0
 25 26  2  0  0  0  0
 26 27  1  0  0  0  0
 26 28  1  0  0  0  0
 23 28  1  0  0  0  0
M  END
> <ID>
CPD_5217

$$$$
CPD_5222
  Mrv1822 09091914012D          

 30 33  0  0  0  0            999 V2000
    2.7512   -5.0116    0.0000 N   0  0  0  0  0  0  0  0  0  0  0  0
    2.7512   -5.8366    0.0000 C   0  0  0  0  0  0  0  0  0  0  0  0
    3.4186   -6.3215    0.0000 N   0  0  0  0  0  0  0  0  0  0  0  0
    3.1637   -7.1062    0.0000 N   0  0  0  0  0  0  0  0  0  0  0  0
    2.3387   -7.1062    0.0000 C   0  0  0  0  0  0  0  0  0  0  0  0
    1.8538   -7.7736    0.0000 C   0  0  0  0  0  0  0  0  0  0  0  0
    1.0333   -7.6874    0.0000 C   0  0  0  0  0  0  0  0  0  0  0  0
    0.5484   -8.3548    0.0000 N   0  0  0  0  0  0  0  0  0  0  0  0
   -0.2721   -8.2686    0.0000 S   0  0  0  0  0  0  0  0  0  0  0  0
   -0.1859   -7.4481    0.0000 O   0  0  0  0  0  0  0  0  0  0  0  0
   -0.3584   -9.0890    0.0000 O   0  0  0  0  0  0  0  0  0  0  0  0
   -1.0926   -8.1823    0.0000 C   0  0  0  0  0  0  0  0  0  0  0  0
   -1.5775   -8.8498    0.0000 C   0  0  0  0  0  0  0  0  0  0  0  0
   -2.3980   -8.7635    0.0000 C   0  0  0  0  0  0  0  0  0  0  0  0
   -2.7336   -8.0098    0.0000 C   0  0  0  0  0  0  0  0  0  0  0  0
   -2.2486   -7.3424    0.0000 C   0  0  0  0  0  0  0  0  0  0  0  0
   -1.4282   -7.4286    0.0000 C   0  0  0  0  0  0  0  0  0  0  0  0
   -3.5541   -7.9236    0.0000 C   0  0  0  0  0  0  0  0  0  0  0  0
   -4.0390   -8.5911    0.0000 C   0  0  0  0  0  0  0  0  0  0  0  0
   -4.8595   -8.5048    0.0000 C   0  0  0  0  0  0  0  0  0  0  0  0
   -5.3444   -9.1723    0.0000 C   0  0  0  0  0  0  0  0  0  0  0  0
   -6.1649   -9.0860    0.0000 N   0  0  0  0  0  0  0  0  0  0  0  0
   -6.7169   -9.6991    0.0000 C   0  0  0  0  0  0  0  0  0  0  0  0
   -7.4706   -9.3636    0.0000 N   0  0  0  0  0  0  0  0  0  0  0  0
   -7.3843   -8.5431    0.0000 C   0  0  0  0  0  0  0  0  0  0  0  0
   -6.5774   -8.3715    0.0000 N   0  0  0  0  0  0  0  0  0  0  0  0
   -5.1950   -7.7511    0.0000 C   0  0  0  0  0  0  0  0  0  0  0  0
   -4.7101   -7.0837    0.0000 C   0  0  0  0  0  0  0  0  0  0  0  0
   -3.8896   -7.1699    0.0000 C   0  0  0  0  0  0  0  0  0  0  0  0
    2.0837   -6.3215    0.0000 S   0  0  0  0  0  0  0  0  0  0  0  0
  1  2  1  0  0  0  0
  2  3  2  0  0  0  0
  3  4  1  0  0  0  0
  4  5  2  0  0  0  0
  5  6  1  0  0  0  0
  6  7  1  0  0  0  0
  7  8  1  0  0  0  0
  8  9  1  0  0  0  0
  9 10  2  0  0  0  0
  9 11  2  0  0  0  0
  9 12  1  0  0  0  0
 12 13  2  0  0  0  0
 13 14  1  0  0  0  0
 14 15  2  0  0  0  0
 15 16  1  0  0  0  0
 16 17  2  0  0  0  0
 12 17  1  0  0  0  0
 15 18  1  0  0  0  0
 18 19  2  0  0  0  0
 19 20  1  0  0  0  0
 20 21  1  0  0  0  0
 21 22  1  0  0  0  0
 22 23  1  0  0  0  0
 23 24  2  0  0  0  0
 24 25  1  0  0  0  0
 25 26  2  0  0  0  0
 22 26  1  0  0  0  0
 20 27  2  0  0  0  0
 27 28  1  0  0  0  0
 28 29  2  0  0  0  0
 18 29  1  0  0  0  0
  5 30  1  0  0  0  0
  2 30  1  0  0  0  0
M  END
> <ID>
CPD_5222

$$$$
CPD_5227
  Mrv1822 09091914012D          

 27 30  0  0  0  0            999 V2000
   -0.7145   -2.8875    0.0000 N   0  0  0  0  0  0  0  0  0  0  0  0
   -0.7145   -3.7125    0.0000 C   0  0  0  0  0  0  0  0  0  0  0  0
   -0.0470   -4.1974    0.0000 N   0  0  0  0  0  0  0  0  0  0  0  0
   -0.3020   -4.9820    0.0000 N   0  0  0  0  0  0  0  0  0  0  0  0
   -1.1270   -4.9820    0.0000 C   0  0  0  0  0  0  0  0  0  0  0  0
   -1.6119   -5.6495    0.0000 S   0  0  0  0  0  0  0  0  0  0  0  0
   -1.2763   -6.4032    0.0000 C   0  0  0  0  0  0  0  0  0  0  0  0
   -1.7613   -7.0706    0.0000 C   0  0  0  0  0  0  0  0  0  0  0  0
   -2.5817   -6.9844    0.0000 C   0  0  0  0  0  0  0  0  0  0  0  0
   -3.0667   -7.6518    0.0000 C   0  0  0  0  0  0  0  0  0  0  0  0
   -2.7311   -8.4055    0.0000 C   0  0  0  0  0  0  0  0  0  0  0  0
   -1.9106   -8.4917    0.0000 C   0  0  0  0  0  0  0  0  0  0  0  0
   -1.5751   -9.2454    0.0000 Cl  0  0  0  0  0  0  0  0  0  0  0  0
   -1.4257   -7.8243    0.0000 C   0  0  0  0  0  0  0  0  0  0  0  0
   -2.9173   -6.2307    0.0000 C   0  0  0  0  0  0  0  0  0  0  0  0
   -3.7378   -6.1445    0.0000 C   0  0  0  0  0  0  0  0  0  0  0  0
   -4.0733   -5.3908    0.0000 C   0  0  0  0  0  0  0  0  0  0  0  0
   -3.5884   -4.7233    0.0000 C   0  0  0  0  0  0  0  0  0  0  0  0
   -2.7679   -4.8096    0.0000 C   0  0  0  0  0  0  0  0  0  0  0  0
   -2.4324   -5.5632    0.0000 C   0  0  0  0  0  0  0  0  0  0  0  0
   -4.2227   -6.8119    0.0000 C   0  0  0  0  0  0  0  0  0  0  0  0
   -3.8871   -7.5656    0.0000 N   0  0  0  0  0  0  0  0  0  0  0  0
   -4.3721   -8.2330    0.0000 C   0  0  0  0  0  0  0  0  0  0  0  0
   -5.1925   -8.1468    0.0000 C   0  0  0  0  0  0  0  0  0  0  0  0
   -5.5281   -7.3931    0.0000 C   0  0  0  0  0  0  0  0  0  0  0  0
   -5.0432   -6.7257    0.0000 C   0  0  0  0  0  0  0  0  0  0  0  0
   -1.3819   -4.1974    0.0000 S   0  0  0  0  0  0  0  0  0  0  0  0
  1  2  1  0  0  0  0
  2  3  2  0  0  0  0
  3  4  1  0  0  0  0
  4  5  2  0  0  0  0
  5  6  1  0  0  0  0
  6  7  1  0  0  0  0
  7  8  1  0  0  0  0
  8  9  2  0  0  0  0
  9 10  1  0  0  0  0
 10 11  2  0  0  0  0
 11 12  1  0  0  0  0
 12 13  1  0  0  0  0
 12 14  2  0  0  0  0
  8 14  1  0  0  0  0
  9 15  1  0  0  0  0
 15 16  2  0  0  0  0
 16 17  1  0  0  0  0
 17 18  2  0  0  0  0
 18 19  1  0  0  0  0
 19 20  2  0  0  0  0
 15 20  1  0  0  0  0
 16 21  1  0  0  0  0
 21 22  2  0  0  0  0
 22 23  1  0  0  0  0
 23 24  2  0  0  0  0
 24 25  1  0  0  0  0
 25 26  2  0  0  0  0
 21 26  1  0  0  0  0
  5 27  1  0  0  0  0
  2 27  1  0  0  0  0
M  END
> <ID>
CPD_5227

$$$$
CPD_5232
  Mrv1822 09091914012D          

 22 24  0  0  0  0            999 V2000
   -2.7512    0.6402    0.0000 N   0  0  0  0  0  0  0  0  0  0  0  0
   -2.7512   -0.1848    0.0000 C   0  0  0  0  0  0  0  0  0  0  0  0
   -2.0837   -0.6697    0.0000 N   0  0  0  0  0  0  0  0  0  0  0  0
   -2.3387   -1.4544    0.0000 N   0  0  0  0  0  0  0  0  0  0  0  0
   -3.1637   -1.4544    0.0000 C   0  0  0  0  0  0  0  0  0  0  0  0
   -3.6486   -2.1218    0.0000 S   0  0  0  0  0  0  0  0  0  0  0  0
   -3.3130   -2.8755    0.0000 C   0  0  0  0  0  0  0  0  0  0  0  0
   -3.7980   -3.5429    0.0000 C   0  0  0  0  0  0  0  0  0  0  0  0
   -3.4624   -4.2966    0.0000 C   0  0  0  0  0  0  0  0  0  0  0  0
   -3.9473   -4.9640    0.0000 C   0  0  0  0  0  0  0  0  0  0  0  0
   -4.7678   -4.8778    0.0000 C   0  0  0  0  0  0  0  0  0  0  0  0
   -5.1034   -4.1241    0.0000 C   0  0  0  0  0  0  0  0  0  0  0  0
   -5.9239   -4.0379    0.0000 Cl  0  0  0  0  0  0  0  0  0  0  0  0
   -4.6184   -3.4567    0.0000 C   0  0  0  0  0  0  0  0  0  0  0  0
   -2.6419   -4.3828    0.0000 C   0  0  0  0  0  0  0  0  0  0  0  0
   -2.1570   -3.7154    0.0000 C   0  0  0  0  0  0  0  0  0  0  0  0
   -2.4926   -2.9617    0.0000 F   0  0  0  0  0  0  0  0  0  0  0  0
   -1.3365   -3.8016    0.0000 C   0  0  0  0  0  0  0  0  0  0  0  0
   -1.0010   -4.5553    0.0000 C   0  0  0  0  0  0  0  0  0  0  0  0
   -1.4859   -5.2227    0.0000 C   0  0  0  0  0  0  0  0  0  0  0  0
   -2.3064   -5.1365    0.0000 C   0  0  0  0  0  0  0  0  0  0  0  0
   -3.4186   -0.6697    0.0000 S   0  0  0  0  0  0  0  0  0  0  0  0
  1  2  1  0  0  0  0
  2  3  2  0  0  0  0
  3  4  1  0  0  0  0
  4  5  2  0  0  0  0
  5  6  1  0  0  0  0
  6  7  1  0  0  0  0
  7  8  1  0  0  0  0
  8  9  2  0  0  0  0
  9 10  1  0  0  0  0
 10 11  2  0  0  0  0
 11 12  1  0  0  0  0
 12 13  1  0  0  0  0
 12 14  2  0  0  0  0
  8 14  1  0  0  0  0
  9 15  1  0  0  0  0
 15 16  2  0  0  0  0
 16 17  1  0  0  0  0
 16 18  1  0  0  0  0
 18 19  2  0  0  0  0
 19 20  1  0  0  0  0
 20 21  2  0  0  0  0
 15 21  1  0  0  0  0
  5 22  1  0  0  0  0
  2 22  1  0  0  0  0
M  END
> <ID>
CPD_5232

$$$$
CPD_5237
  Mrv1822 09091914012D          

 27 29  0  0  0  0            999 V2000
   -2.7512    0.6402    0.0000 N   0  0  0  0  0  0  0  0  0  0  0  0
   -2.7512   -0.1848    0.0000 C   0  0  0  0  0  0  0  0  0  0  0  0
   -2.0837   -0.6697    0.0000 N   0  0  0  0  0  0  0  0  0  0  0  0
   -2.3387   -1.4544    0.0000 N   0  0  0  0  0  0  0  0  0  0  0  0
   -3.1637   -1.4544    0.0000 C   0  0  0  0  0  0  0  0  0  0  0  0
   -3.6486   -2.1218    0.0000 S   0  0  0  0  0  0  0  0  0  0  0  0
   -3.3130   -2.8755    0.0000 C   0  0  0  0  0  0  0  0  0  0  0  0
   -3.7980   -3.5429    0.0000 C   0  0  0  0  0  0  0  0  0  0  0  0
   -3.4624   -4.2966    0.0000 C   0  0  0  0  0  0  0  0  0  0  0  0
   -3.9473   -4.9640    0.0000 C   0  0  0  0  0  0  0  0  0  0  0  0
   -4.7678   -4.8778    0.0000 C   0  0  0  0  0  0  0  0  0  0  0  0
   -5.1034   -4.1241    0.0000 C   0  0  0  0  0  0  0  0  0  0  0  0
   -5.9239   -4.0379    0.0000 Cl  0  0  0  0  0  0  0  0  0  0  0  0
   -4.6184   -3.4567    0.0000 C   0  0  0  0  0  0  0  0  0  0  0  0
   -2.6419   -4.3828    0.0000 C   0  0  0  0  0  0  0  0  0  0  0  0
   -2.1570   -3.7154    0.0000 C   0  0  0  0  0  0  0  0  0  0  0  0
   -2.4926   -2.9617    0.0000 Cl  0  0  0  0  0  0  0  0  0  0  0  0
   -1.3365   -3.8016    0.0000 C   0  0  0  0  0  0  0  0  0  0  0  0
   -1.0010   -4.5553    0.0000 C   0  0  0  0  0  0  0  0  0  0  0  0
   -0.1805   -4.6415    0.0000 O   0  0  0  0  0  0  0  0  0  0  0  0
    0.3044   -3.9741    0.0000 C   0  0  0  0  0  0  0  0  0  0  0  0
    1.1249   -4.0603    0.0000 C   0  0  0  0  0  0  0  0  0  0  0  0
    1.4605   -4.8140    0.0000 O   0  0  0  0  0  0  0  0  0  0  0  0
    1.6098   -3.3929    0.0000 O   0  0  0  0  0  0  0  0  0  0  0  0
   -1.4859   -5.2227    0.0000 C   0  0  0  0  0  0  0  0  0  0  0  0
   -2.3064   -5.1365    0.0000 C   0  0  0  0  0  0  0  0  0  0  0  0
   -3.4186   -0.6697    0.0000 S   0  0  0  0  0  0  0  0  0  0  0  0
  1  2  1  0  0  0  0
  2  3  2  0  0  0  0
  3  4  1  0  0  0  0
  4  5  2  0  0  0  0
  5  6  1  0  0  0  0
  6  7  1  0  0  0  0
  7  8  1  0  0  0  0
  8  9  2  0  0  0  0
  9 10  1  0  0  0  0
 10 11  2  0  0  0  0
 11 12  1  0  0  0  0
 12 13  1  0  0  0  0
 12 14  2  0  0  0  0
  8 14  1  0  0  0  0
  9 15  1  0  0  0  0
 15 16  2  0  0  0  0
 16 17  1  0  0  0  0
 16 18  1  0  0  0  0
 18 19  2  0  0  0  0
 19 20  1  0  0  0  0
 20 21  1  0  0  0  0
 21 22  1  0  0  0  0
 22 23  1  0  0  0  0
 22 24  2  0  0  0  0
 19 25  1  0  0  0  0
 25 26  2  0  0  0  0
 15 26  1  0  0  0  0
  5 27  1  0  0  0  0
  2 27  1  0  0  0  0
M  END
> <ID>
CPD_5237

$$$$
CPD_5242
  Mrv1822 09091914012D          

 37 40  0  0  0  0            999 V2000
    2.8579   -4.1250    0.0000 C   0  0  0  0  0  0  0  0  0  0  0  0
    2.8579   -4.9500    0.0000 C   0  0  0  0  0  0  0  0  0  0  0  0
    2.1434   -5.3625    0.0000 C   0  0  0  0  0  0  0  0  0  0  0  0
    2.1434   -6.1875    0.0000 C   0  0  0  0  0  0  0  0  0  0  0  0
    2.8579   -6.6000    0.0000 C   0  0  0  0  0  0  0  0  0  0  0  0
    3.5724   -6.1875    0.0000 C   0  0  0  0  0  0  0  0  0  0  0  0
    4.2868   -6.6000    0.0000 N   0  0  0  0  0  0  0  0  0  0  0  0
    4.2868   -7.4250    0.0000 C   0  0  0  0  0  0  0  0  0  0  0  0
    3.5724   -7.8375    0.0000 O   0  0  0  0  0  0  0  0  0  0  0  0
    5.0013   -7.8375    0.0000 C   0  0  0  0  0  0  0  0  0  0  0  0
    5.0013   -8.6625    0.0000 C   0  0  0  0  0  0  0  0  0  0  0  0
    5.7158   -9.0750    0.0000 C   0  0  0  0  0  0  0  0  0  0  0  0
    6.4302   -8.6625    0.0000 C   0  0  0  0  0  0  0  0  0  0  0  0
    6.4302   -7.8375    0.0000 C   0  0  0  0  0  0  0  0  0  0  0  0
    5.7158   -7.4250    0.0000 C   0  0  0  0  0  0  0  0  0  0  0  0
    4.2868   -9.0750    0.0000 C   0  0  0  0  0  0  0  0  0  0  0  0
    3.5724   -8.6625    0.0000 C   0  0  0  0  0  0  0  0  0  0  0  0
    2.8579   -9.0750    0.0000 C   0  0  0  0  0  0  0  0  0  0  0  0
    2.8579   -9.9000    0.0000 C   0  0  0  0  0  0  0  0  0  0  0  0
    3.5724  -10.3125    0.0000 N   0  0  0  0  0  0  0  0  0  0  0  0
    4.2868   -9.9000    0.0000 C   0  0  0  0  0  0  0  0  0  0  0  0
    5.0013  -10.3125    0.0000 C   0  0  0  0  0  0  0  0  0  0  0  0
    5.0013  -11.1375    0.0000 N   0  0  0  0  0  0  0  0  0  0  0  0
    5.7158  -11.5500    0.0000 C   0  0  0  0  0  0  0  0  0  0  0  0
    5.7158  -12.3750    0.0000 C   0  0  0  0  0  0  0  0  0  0  0  0
    5.0013  -12.7875    0.0000 C   0  0  0  0  0  0  0  0  0  0  0  0
    4.2868  -12.3750    0.0000 C   0  0  0  0  0  0  0  0  0  0  0  0
    4.2868  -11.5500    0.0000 C   0  0  0  0  0  0  0  0  0  0  0  0
    5.0013  -13.6125    0.0000 C   0  0  0  0  0  0  0  0  0  0  0  0
    5.7158  -14.0250    0.0000 N   0  0  0  0  0  0  0  0  0  0  0  0
    4.2868  -14.0250    0.0000 O   0  0  0  0  0  0  0  0  0  0  0  0
    2.1434   -8.6625    0.0000 C   0  0  0  0  0  0  0  0  0  0  0  0
    1.4289   -8.2500    0.0000 F   0  0  0  0  0  0  0  0  0  0  0  0
    2.5559   -7.9480    0.0000 F   0  0  0  0  0  0  0  0  0  0  0  0
    1.7309   -9.3770    0.0000 F   0  0  0  0  0  0  0  0  0  0  0  0
    3.5724   -5.3625    0.0000 C   0  0  0  0  0  0  0  0  0  0  0  0
    4.2868   -4.9500    0.0000 C   0  0  0  0  0  0  0  0  0  0  0  0
  1  2  1  0  0  0  0
  2  3  2  0  0  0  0
  3  4  1  0  0  0  0
  4  5  2  0  0  0  0
  5  6  1  0  0  0  0
  6  7  1  0  0  0  0
  7  8  1  0  0  0  0
  8  9  2  0  0  0  0
  8 10  1  0  0  0  0
 10 11  2  0  0  0  0
 11 12  1  0  0  0  0
 12 13  2  0  0  0  0
 13 14  1  0  0  0  0
 14 15  2  0  0  0  0
 10 15  1  0  0  0  0
 11 16  1  0  0  0  0
 16 17  2  0  0  0  0
 17 18  1  0  0  0  0
 18 19  2  0  0  0  0
 19 20  1  0  0  0  0
 20 21  2  0  0  0  0
 16 21  1  0  0  0  0
 21 22  1  0  0  0  0
 22 23  1  0  0  0  0
 23 24  1  0  0  0  0
 24 25  1  0  0  0  0
 25 26  1  0  0  0  0
 26 27  1  0  0  0  0
 27 28  1  0  0  0  0
 23 28  1  0  0  0  0
 26 29  1  0  0  0  0
 29 30  1  0  0  0  0
 29 31  2  0  0  0  0
 18 32  1  0  0  0  0
 32 33  1  0  0  0  0
 32 34  1  0  0  0  0
 32 35  1  0  0  0  0
  6 36  2  0  0  0  0
  2 36  1  0  0  0  0
 36 37  1  0  0  0  0
M  END
> <ID>
CPD_5242

$$$$
CPD_5247
  Mrv1822 09091914012D          

 27 29  0  0  0  0            999 V2000
    3.5724    2.0625    0.0000 C   0  0  0  0  0  0  0  0  0  0  0  0
    3.5724    1.2375    0.0000 C   0  0  0  0  0  0  0  0  0  0  0  0
    4.2868    0.8250    0.0000 C   0  0  0  0  0  0  0  0  0  0  0  0
    4.2868   -0.0000    0.0000 C   0  0  0  0  0  0  0  0  0  0  0  0
    3.5724   -0.4125    0.0000 C   0  0  0  0  0  0  0  0  0  0  0  0
    2.8579   -0.0000    0.0000 C   0  0  0  0  0  0  0  0  0  0  0  0
    2.1434   -0.4125    0.0000 N   0  0  0  0  0  0  0  0  0  0  0  0
    2.1434   -1.2375    0.0000 C   0  0  0  0  0  0  0  0  0  0  0  0
    2.8579   -1.6500    0.0000 O   0  0  0  0  0  0  0  0  0  0  0  0
    1.4289   -1.6500    0.0000 C   0  0  0  0  0  0  0  0  0  0  0  0
    0.7145   -1.2375    0.0000 C   0  0  0  0  0  0  0  0  0  0  0  0
    0.0000   -1.6500    0.0000 C   0  0  0  0  0  0  0  0  0  0  0  0
    0.0000   -2.4750    0.0000 C   0  0  0  0  0  0  0  0  0  0  0  0
    0.7145   -2.8875    0.0000 C   0  0  0  0  0  0  0  0  0  0  0  0
    1.4289   -2.4750    0.0000 C   0  0  0  0  0  0  0  0  0  0  0  0
    0.7145   -0.4125    0.0000 C   0  0  0  0  0  0  0  0  0  0  0  0
    0.0000    0.0000    0.0000 C   0  0  0  0  0  0  0  0  0  0  0  0
   -0.7145   -0.4125    0.0000 C   0  0  0  0  0  0  0  0  0  0  0  0
   -0.7145   -1.2375    0.0000 O   0  0  0  0  0  0  0  0  0  0  0  0
   -1.4289    0.0000    0.0000 O   0  0  0  0  0  0  0  0  0  0  0  0
    0.0000    0.8250    0.0000 C   0  0  0  0  0  0  0  0  0  0  0  0
   -0.7145    1.2375    0.0000 F   0  0  0  0  0  0  0  0  0  0  0  0
    0.7145    1.2375    0.0000 C   0  0  0  0  0  0  0  0  0  0  0  0
    1.4289    0.8250    0.0000 C   0  0  0  0  0  0  0  0  0  0  0  0
    1.4289    0.0000    0.0000 C   0  0  0  0  0  0  0  0  0  0  0  0
    2.8579    0.8250    0.0000 C   0  0  0  0  0  0  0  0  0  0  0  0
    2.1434    1.2375    0.0000 C   0  0  0  0  0  0  0  0  0  0  0  0
  1  2  1  0  0  0  0
  2  3  2  0  0  0  0
  3  4  1  0  0  0  0
  4  5  2  0  0  0  0
  5  6  1  0  0  0  0
  6  7  1  0  0  0  0
  7  8  1  0  0  0  0
  8  9  2  0  0  0  0
  8 10  1  0  0  0  0
 10 11  2  0  0  0  0
 11 12  1  0  0  0  0
 12 13  2  0  0  0  0
 13 14  1  0  0  0  0
 14 15  2  0  0  0  0
 10 15  1  0  0  0  0
 11 16  1  0  0  0  0
 16 17  2  0  0  0  0
 17 18  1  0  0  0  0
 18 19  1  0  0  0  0
 18 20  2  0  0  0  0
 17 21  1  0  0  0  0
 21 22  1  0  0  0  0
 21 23  2  0  0  0  0
 23 24  1  0  0  0  0
 24 25  2  0  0  0  0
 16 25  1  0  0  0  0
  6 26  2  0  0  0  0
  2 26  1  0  0  0  0
 26 27  1  0  0  0  0
M  END
> <ID>
CPD_5247

$$$$
CPD_5252
  Mrv1822 09091914012D          

 35 38  0  0  0  0            999 V2000
    5.7158    7.1786    0.0000 C   0  0  0  0  0  0  0  0  0  0  0  0
    5.0013    6.7661    0.0000 C   0  0  0  0  0  0  0  0  0  0  0  0
    5.0013    5.9411    0.0000 C   0  0  0  0  0  0  0  0  0  0  0  0
    4.2868    5.5286    0.0000 C   0  0  0  0  0  0  0  0  0  0  0  0
    3.5724    5.9411    0.0000 C   0  0  0  0  0  0  0  0  0  0  0  0
    3.5724    6.7661    0.0000 C   0  0  0  0  0  0  0  0  0  0  0  0
    2.8579    7.1786    0.0000 N   0  0  0  0  0  0  0  0  0  0  0  0
    2.1434    6.7661    0.0000 C   0  0  0  0  0  0  0  0  0  0  0  0
    2.1434    5.9411    0.0000 O   0  0  0  0  0  0  0  0  0  0  0  0
    1.4289    7.1786    0.0000 C   0  0  0  0  0  0  0  0  0  0  0  0
    0.7145    6.7661    0.0000 C   0  0  0  0  0  0  0  0  0  0  0  0
   -0.0000    7.1786    0.0000 C   0  0  0  0  0  0  0  0  0  0  0  0
   -0.0000    8.0036    0.0000 C   0  0  0  0  0  0  0  0  0  0  0  0
    0.7145    8.4161    0.0000 C   0  0  0  0  0  0  0  0  0  0  0  0
    1.4289    8.0036    0.0000 C   0  0  0  0  0  0  0  0  0  0  0  0
    0.7145    5.9411    0.0000 C   0  0  0  0  0  0  0  0  0  0  0  0
    1.4289    5.5286    0.0000 C   0  0  0  0  0  0  0  0  0  0  0  0
    1.4289    4.7036    0.0000 C   0  0  0  0  0  0  0  0  0  0  0  0
    0.7145    4.2911    0.0000 C   0  0  0  0  0  0  0  0  0  0  0  0
    0.0000    4.7036    0.0000 C   0  0  0  0  0  0  0  0  0  0  0  0
   -0.0000    5.5286    0.0000 C   0  0  0  0  0  0  0  0  0  0  0  0
    0.7145    3.4661    0.0000 C   0  0  0  0  0  0  0  0  0  0  0  0
    1.3819    2.9812    0.0000 N   0  0  0  0  0  0  0  0  0  0  0  0
    1.1270    2.1965    0.0000 C   0  0  0  0  0  0  0  0  0  0  0  0
    0.3020    2.1965    0.0000 C   0  0  0  0  0  0  0  0  0  0  0  0
    0.0470    2.9812    0.0000 S   0  0  0  0  0  0  0  0  0  0  0  0
   -0.1830    1.5291    0.0000 C   0  0  0  0  0  0  0  0  0  0  0  0
    0.1526    0.7754    0.0000 O   0  0  0  0  0  0  0  0  0  0  0  0
   -1.0034    1.6153    0.0000 O   0  0  0  0  0  0  0  0  0  0  0  0
    1.6119    1.5291    0.0000 C   0  0  0  0  0  0  0  0  0  0  0  0
    2.0968    0.8617    0.0000 F   0  0  0  0  0  0  0  0  0  0  0  0
    0.9445    1.0442    0.0000 F   0  0  0  0  0  0  0  0  0  0  0  0
    2.2793    2.0140    0.0000 F   0  0  0  0  0  0  0  0  0  0  0  0
    4.2868    7.1786    0.0000 C   0  0  0  0  0  0  0  0  0  0  0  0
    4.2868    8.0036    0.0000 C   0  0  0  0  0  0  0  0  0  0  0  0
  1  2  1  0  0  0  0
  2  3  2  0  0  0  0
  3  4  1  0  0  0  0
  4  5  2  0  0  0  0
  5  6  1  0  0  0  0
  6  7  1  0  0  0  0
  7  8  1  0  0  0  0
  8  9  2  0  0  0  0
  8 10  1  0  0  0  0
 10 11  2  0  0  0  0
 11 12  1  0  0  0  0
 12 13  2  0  0  0  0
 13 14  1  0  0  0  0
 14 15  2  0  0  0  0
 10 15  1  0  0  0  0
 11 16  1  0  0  0  0
 16 17  2  0  0  0  0
 17 18  1  0  0  0  0
 18 19  2  0  0  0  0
 19 20  1  0  0  0  0
 20 21  2  0  0  0  0
 16 21  1  0  0  0  0
 19 22  1  0  0  0  0
 22 23  2  0  0  0  0
 23 24  1  0  0  0  0
 24 25  2  0  0  0  0
 25 26  1  0  0  0  0
 22 26  1  0  0  0  0
 25 27  1  0  0  0  0
 27 28  1  0  0  0  0
 27 29  2  0  0  0  0
 24 30  1  0  0  0  0
 30 31  1  0  0  0  0
 30 32  1  0  0  0  0
 30 33  1  0  0  0  0
  6 34  2  0  0  0  0
  2 34  1  0  0  0  0
 34 35  1  0  0  0  0
M  END
> <ID>
CPD_5252

$$$$
CPD_5257
  Mrv1822 09091914012D          

 30 32  0  0  0  0            999 V2000
    4.3935    7.2402    0.0000 C   0  0  0  0  0  0  0  0  0  0  0  0
    4.3935    8.0652    0.0000 O   0  0  0  0  0  0  0  0  0  0  0  0
    3.6791    8.4777    0.0000 C   0  0  0  0  0  0  0  0  0  0  0  0
    2.9646    8.0652    0.0000 O   0  0  0  0  0  0  0  0  0  0  0  0
    3.6791    9.3027    0.0000 C   0  0  0  0  0  0  0  0  0  0  0  0
    2.9646    9.7152    0.0000 C   0  0  0  0  0  0  0  0  0  0  0  0
    2.9646   10.5402    0.0000 C   0  0  0  0  0  0  0  0  0  0  0  0
    3.6791   10.9527    0.0000 C   0  0  0  0  0  0  0  0  0  0  0  0
    3.6791   11.7777    0.0000 F   0  0  0  0  0  0  0  0  0  0  0  0
    4.3935   10.5402    0.0000 C   0  0  0  0  0  0  0  0  0  0  0  0
    5.1080   10.9527    0.0000 F   0  0  0  0  0  0  0  0  0  0  0  0
    4.3935    9.7152    0.0000 C   0  0  0  0  0  0  0  0  0  0  0  0
    2.2501    9.3027    0.0000 C   0  0  0  0  0  0  0  0  0  0  0  0
    2.2501    8.4777    0.0000 C   0  0  0  0  0  0  0  0  0  0  0  0
    1.5356    8.0652    0.0000 C   0  0  0  0  0  0  0  0  0  0  0  0
    0.8212    8.4777    0.0000 C   0  0  0  0  0  0  0  0  0  0  0  0
    0.8212    9.3027    0.0000 C   0  0  0  0  0  0  0  0  0  0  0  0
    1.5356    9.7152    0.0000 C   0  0  0  0  0  0  0  0  0  0  0  0
    0.1067    8.0652    0.0000 S   0  0  0  0  0  0  0  0  0  0  0  0
   -0.3058    8.7797    0.0000 O   0  0  0  0  0  0  0  0  0  0  0  0
    0.5192    7.3507    0.0000 O   0  0  0  0  0  0  0  0  0  0  0  0
   -0.6078    7.6527    0.0000 N   0  0  0  0  0  0  0  0  0  0  0  0
   -0.6078    6.8277    0.0000 C   0  0  0  0  0  0  0  0  0  0  0  0
   -1.3222    6.4152    0.0000 C   0  0  0  0  0  0  0  0  0  0  0  0
   -1.3222    5.5902    0.0000 C   0  0  0  0  0  0  0  0  0  0  0  0
   -0.6548    5.1053    0.0000 N   0  0  0  0  0  0  0  0  0  0  0  0
   -0.9097    4.3206    0.0000 N   0  0  0  0  0  0  0  0  0  0  0  0
   -1.7347    4.3206    0.0000 C   0  0  0  0  0  0  0  0  0  0  0  0
   -2.2197    3.6532    0.0000 N   0  0  0  0  0  0  0  0  0  0  0  0
   -1.9897    5.1053    0.0000 S   0  0  0  0  0  0  0  0  0  0  0  0
  1  2  1  0  0  0  0
  2  3  1  0  0  0  0
  3  4  2  0  0  0  0
  3  5  1  0  0  0  0
  5  6  2  0  0  0  0
  6  7  1  0  0  0  0
  7  8  2  0  0  0  0
  8  9  1  0  0  0  0
  8 10  1  0  0  0  0
 10 11  1  0  0  0  0
 10 12  2  0  0  0  0
  5 12  1  0  0  0  0
  6 13  1  0  0  0  0
 13 14  2  0  0  0  0
 14 15  1  0  0  0  0
 15 16  2  0  0  0  0
 16 17  1  0  0  0  0
 17 18  2  0  0  0  0
 13 18  1  0  0  0  0
 16 19  1  0  0  0  0
 19 20  2  0  0  0  0
 19 21  2  0  0  0  0
 19 22  1  0  0  0  0
 22 23  1  0  0  0  0
 23 24  1  0  0  0  0
 24 25  1  0  0  0  0
 25 26  2  0  0  0  0
 26 27  1  0  0  0  0
 27 28  2  0  0  0  0
 28 29  1  0  0  0  0
 28 30  1  0  0  0  0
 25 30  1  0  0  0  0
M  END
> <ID>
CPD_5257

$$$$
CPD_5262
  Mrv1822 09091914012D          

 33 36  0  0  0  0            999 V2000
    9.1814   -2.2473    0.0000 N   0  0  0  0  0  0  0  0  0  0  0  0
    9.1814   -3.0723    0.0000 C   0  0  0  0  0  0  0  0  0  0  0  0
    9.8489   -3.5572    0.0000 N   0  0  0  0  0  0  0  0  0  0  0  0
    9.5939   -4.3419    0.0000 N   0  0  0  0  0  0  0  0  0  0  0  0
    8.7689   -4.3419    0.0000 C   0  0  0  0  0  0  0  0  0  0  0  0
    8.2840   -5.0093    0.0000 C   0  0  0  0  0  0  0  0  0  0  0  0
    7.4635   -4.9231    0.0000 C   0  0  0  0  0  0  0  0  0  0  0  0
    6.9786   -5.5905    0.0000 N   0  0  0  0  0  0  0  0  0  0  0  0
    6.1581   -5.5043    0.0000 S   0  0  0  0  0  0  0  0  0  0  0  0
    6.2443   -4.6838    0.0000 O   0  0  0  0  0  0  0  0  0  0  0  0
    6.0719   -6.3248    0.0000 O   0  0  0  0  0  0  0  0  0  0  0  0
    5.3376   -5.4180    0.0000 C   0  0  0  0  0  0  0  0  0  0  0  0
    4.8527   -6.0855    0.0000 C   0  0  0  0  0  0  0  0  0  0  0  0
    4.0322   -5.9992    0.0000 C   0  0  0  0  0  0  0  0  0  0  0  0
    3.6967   -5.2456    0.0000 C   0  0  0  0  0  0  0  0  0  0  0  0
    4.1816   -4.5781    0.0000 C   0  0  0  0  0  0  0  0  0  0  0  0
    5.0021   -4.6644    0.0000 C   0  0  0  0  0  0  0  0  0  0  0  0
    2.8762   -5.1593    0.0000 C   0  0  0  0  0  0  0  0  0  0  0  0
    2.3913   -5.8268    0.0000 C   0  0  0  0  0  0  0  0  0  0  0  0
    1.5708   -5.7405    0.0000 C   0  0  0  0  0  0  0  0  0  0  0  0
    1.2352   -4.9869    0.0000 C   0  0  0  0  0  0  0  0  0  0  0  0
    1.7201   -4.3194    0.0000 C   0  0  0  0  0  0  0  0  0  0  0  0
    2.5406   -4.4057    0.0000 C   0  0  0  0  0  0  0  0  0  0  0  0
    0.4147   -4.9006    0.0000 C   0  0  0  0  0  0  0  0  0  0  0  0
   -0.0702   -5.5681    0.0000 O   0  0  0  0  0  0  0  0  0  0  0  0
    0.0792   -4.1469    0.0000 C   0  0  0  0  0  0  0  0  0  0  0  0
   -0.7413   -4.0607    0.0000 C   0  0  0  0  0  0  0  0  0  0  0  0
   -1.0768   -3.3070    0.0000 C   0  0  0  0  0  0  0  0  0  0  0  0
   -0.5919   -2.6396    0.0000 C   0  0  0  0  0  0  0  0  0  0  0  0
   -0.9275   -1.8859    0.0000 Cl  0  0  0  0  0  0  0  0  0  0  0  0
    0.2286   -2.7258    0.0000 C   0  0  0  0  0  0  0  0  0  0  0  0
    0.5641   -3.4795    0.0000 C   0  0  0  0  0  0  0  0  0  0  0  0
    8.5140   -3.5572    0.0000 S   0  0  0  0  0  0  0  0  0  0  0  0
  1  2  1  0  0  0  0
  2  3  2  0  0  0  0
  3  4  1  0  0  0  0
  4  5  2  0  0  0  0
  5  6  1  0  0  0  0
  6  7  1  0  0  0  0
  7  8  1  0  0  0  0
  8  9  1  0  0  0  0
  9 10  2  0  0  0  0
  9 11  2  0  0  0  0
  9 12  1  0  0  0  0
 12 13  2  0  0  0  0
 13 14  1  0  0  0  0
 14 15  2  0  0  0  0
 15 16  1  0  0  0  0
 16 17  2  0  0  0  0
 12 17  1  0  0  0  0
 15 18  1  0  0  0  0
 18 19  2  0  0  0  0
 19 20  1  0  0  0  0
 20 21  2  0  0  0  0
 21 22  1  0  0  0  0
 22 23  2  0  0  0  0
 18 23  1  0  0  0  0
 21 24  1  0  0  0  0
 24 25  1  0  0  0  0
 24 26  1  0  0  0  0
 26 27  2  0  0  0  0
 27 28  1  0  0  0  0
 28 29  2  0  0  0  0
 29 30  1  0  0  0  0
 29 31  1  0  0  0  0
 31 32  2  0  0  0  0
 26 32  1  0  0  0  0
  5 33  1  0  0  0  0
  2 33  1  0  0  0  0
M  END
> <ID>
CPD_5262

$$$$
CPD_5267
  Mrv1822 09091914012D          

 35 37  0  0  0  0            999 V2000
    2.8579   -0.8250    0.0000 C   0  0  0  0  0  0  0  0  0  0  0  0
    3.5724   -1.2375    0.0000 O   0  0  0  0  0  0  0  0  0  0  0  0
    3.5724   -2.0625    0.0000 C   0  0  0  0  0  0  0  0  0  0  0  0
    2.8579   -2.4750    0.0000 C   0  0  0  0  0  0  0  0  0  0  0  0
    2.1434   -2.0625    0.0000 O   0  0  0  0  0  0  0  0  0  0  0  0
    1.4289   -2.4750    0.0000 C   0  0  0  0  0  0  0  0  0  0  0  0
    0.7145   -2.0625    0.0000 C   0  0  0  0  0  0  0  0  0  0  0  0
    0.0000   -1.6500    0.0000 N   0  0  0  0  0  0  0  0  0  0  0  0
    2.8579   -3.3000    0.0000 C   0  0  0  0  0  0  0  0  0  0  0  0
    3.5724   -3.7125    0.0000 C   0  0  0  0  0  0  0  0  0  0  0  0
    4.2868   -3.3000    0.0000 C   0  0  0  0  0  0  0  0  0  0  0  0
    4.2868   -2.4750    0.0000 C   0  0  0  0  0  0  0  0  0  0  0  0
    3.5724   -4.5375    0.0000 C   0  0  0  0  0  0  0  0  0  0  0  0
    2.8579   -4.9500    0.0000 C   0  0  0  0  0  0  0  0  0  0  0  0
    2.1434   -4.5375    0.0000 C   0  0  0  0  0  0  0  0  0  0  0  0
    1.4289   -4.9500    0.0000 N   0  0  0  0  0  0  0  0  0  0  0  0
    1.4289   -5.7750    0.0000 C   0  0  0  0  0  0  0  0  0  0  0  0
    0.7145   -6.1875    0.0000 C   0  0  0  0  0  0  0  0  0  0  0  0
    0.0000   -5.7750    0.0000 O   0  0  0  0  0  0  0  0  0  0  0  0
    0.7145   -7.0125    0.0000 O   0  0  0  0  0  0  0  0  0  0  0  0
    0.7145   -4.5375    0.0000 S   0  0  0  0  0  0  0  0  0  0  0  0
    1.1270   -3.8230    0.0000 O   0  0  0  0  0  0  0  0  0  0  0  0
    0.3020   -5.2520    0.0000 O   0  0  0  0  0  0  0  0  0  0  0  0
    0.0000   -4.1250    0.0000 C   0  0  0  0  0  0  0  0  0  0  0  0
   -0.7145   -4.5375    0.0000 C   0  0  0  0  0  0  0  0  0  0  0  0
   -1.4289   -4.1250    0.0000 C   0  0  0  0  0  0  0  0  0  0  0  0
   -1.4289   -3.3000    0.0000 C   0  0  0  0  0  0  0  0  0  0  0  0
   -2.1434   -2.8875    0.0000 Cl  0  0  0  0  0  0  0  0  0  0  0  0
   -0.7145   -2.8875    0.0000 C   0  0  0  0  0  0  0  0  0  0  0  0
    0.0000   -3.3000    0.0000 C   0  0  0  0  0  0  0  0  0  0  0  0
    2.8579   -5.7750    0.0000 C   0  0  0  0  0  0  0  0  0  0  0  0
    2.1434   -6.1875    0.0000 F   0  0  0  0  0  0  0  0  0  0  0  0
    3.5724   -6.1875    0.0000 C   0  0  0  0  0  0  0  0  0  0  0  0
    4.2868   -5.7750    0.0000 C   0  0  0  0  0  0  0  0  0  0  0  0
    4.2868   -4.9500    0.0000 C   0  0  0  0  0  0  0  0  0  0  0  0
  1  2  1  0  0  0  0
  2  3  1  0  0  0  0
  3  4  2  0  0  0  0
  4  5  1  0  0  0  0
  5  6  1  0  0  0  0
  6  7  1  0  0  0  0
  7  8  3  0  0  0  0
  4  9  1  0  0  0  0
  9 10  2  0  0  0  0
 10 11  1  0  0  0  0
 11 12  2  0  0  0  0
  3 12  1  0  0  0  0
 10 13  1  0  0  0  0
 13 14  2  0  0  0  0
 14 15  1  0  0  0  0
 15 16  1  0  0  0  0
 16 17  1  0  0  0  0
 17 18  1  0  0  0  0
 18 19  1  0  0  0  0
 18 20  2  0  0  0  0
 16 21  1  0  0  0  0
 21 22  2  0  0  0  0
 21 23  2  0  0  0  0
 21 24  1  0  0  0  0
 24 25  2  0  0  0  0
 25 26  1  0  0  0  0
 26 27  2  0  0  0  0
 27 28  1  0  0  0  0
 27 29  1  0  0  0  0
 29 30  2  0  0  0  0
 24 30  1  0  0  0  0
 14 31  1  0  0  0  0
 31 32  1  0  0  0  0
 31 33  2  0  0  0  0
 33 34  1  0  0  0  0
 34 35  2  0  0  0  0
 13 35  1  0  0  0  0
M  END
> <ID>
CPD_5267

$$$$
CPD_5272
  Mrv1822 09091914012D          

 32 34  0  0  0  0            999 V2000
    1.4289   -4.9500    0.0000 C   0  0  0  0  0  0  0  0  0  0  0  0
    1.4289   -5.7750    0.0000 C   0  0  0  0  0  0  0  0  0  0  0  0
    2.1434   -6.1875    0.0000 C   0  0  0  0  0  0  0  0  0  0  0  0
    2.1434   -7.0125    0.0000 C   0  0  0  0  0  0  0  0  0  0  0  0
    1.4289   -7.4250    0.0000 C   0  0  0  0  0  0  0  0  0  0  0  0
    0.7145   -7.0125    0.0000 C   0  0  0  0  0  0  0  0  0  0  0  0
    0.0000   -7.4250    0.0000 C   0  0  0  0  0  0  0  0  0  0  0  0
   -0.7145   -7.0125    0.0000 N   0  0  0  0  0  0  0  0  0  0  0  0
    0.7145   -6.1875    0.0000 C   0  0  0  0  0  0  0  0  0  0  0  0
    2.8579   -5.7750    0.0000 C   0  0  0  0  0  0  0  0  0  0  0  0
    2.8579   -4.9500    0.0000 C   0  0  0  0  0  0  0  0  0  0  0  0
    3.5724   -4.5375    0.0000 C   0  0  0  0  0  0  0  0  0  0  0  0
    4.2868   -4.9500    0.0000 C   0  0  0  0  0  0  0  0  0  0  0  0
    5.0013   -4.5375    0.0000 C   0  0  0  0  0  0  0  0  0  0  0  0
    5.0013   -3.7125    0.0000 N   0  0  0  0  0  0  0  0  0  0  0  0
    4.2868   -3.3000    0.0000 C   0  0  0  0  0  0  0  0  0  0  0  0
    4.2868   -2.4750    0.0000 C   0  0  0  0  0  0  0  0  0  0  0  0
    5.0013   -2.0625    0.0000 O   0  0  0  0  0  0  0  0  0  0  0  0
    3.5724   -2.0625    0.0000 O   0  0  0  0  0  0  0  0  0  0  0  0
    5.7158   -3.3000    0.0000 S   0  0  0  0  0  0  0  0  0  0  0  0
    6.1283   -4.0145    0.0000 O   0  0  0  0  0  0  0  0  0  0  0  0
    5.3033   -2.5855    0.0000 O   0  0  0  0  0  0  0  0  0  0  0  0
    6.4302   -2.8875    0.0000 C   0  0  0  0  0  0  0  0  0  0  0  0
    6.4302   -2.0625    0.0000 C   0  0  0  0  0  0  0  0  0  0  0  0
    7.1447   -1.6500    0.0000 C   0  0  0  0  0  0  0  0  0  0  0  0
    7.8592   -2.0625    0.0000 C   0  0  0  0  0  0  0  0  0  0  0  0
    8.5737   -1.6500    0.0000 Cl  0  0  0  0  0  0  0  0  0  0  0  0
    7.8592   -2.8875    0.0000 C   0  0  0  0  0  0  0  0  0  0  0  0
    7.1447   -3.3000    0.0000 C   0  0  0  0  0  0  0  0  0  0  0  0
    4.2868   -5.7750    0.0000 C   0  0  0  0  0  0  0  0  0  0  0  0
    3.5724   -6.1875    0.0000 C   0  0  0  0  0  0  0  0  0  0  0  0
    3.5724   -7.0125    0.0000 Cl  0  0  0  0  0  0  0  0  0  0  0  0
  1  2  1  0  0  0  0
  2  3  2  0  0  0  0
  3  4  1  0  0  0  0
  4  5  2  0  0  0  0
  5  6  1  0  0  0  0
  6  7  1  0  0  0  0
  7  8  1  0  0  0  0
  6  9  2  0  0  0  0
  2  9  1  0  0  0  0
  3 10  1  0  0  0  0
 10 11  2  0  0  0  0
 11 12  1  0  0  0  0
 12 13  2  0  0  0  0
 13 14  1  0  0  0  0
 14 15  1  0  0  0  0
 15 16  1  0  0  0  0
 16 17  1  0  0  0  0
 17 18  1  0  0  0  0
 17 19  2  0  0  0  0
 15 20  1  0  0  0  0
 20 21  2  0  0  0  0
 20 22  2  0  0  0  0
 20 23  1  0  0  0  0
 23 24  2  0  0  0  0
 24 25  1  0  0  0  0
 25 26  2  0  0  0  0
 26 27  1  0  0  0  0
 26 28  1  0  0  0  0
 28 29  2  0  0  0  0
 23 29  1  0  0  0  0
 13 30  1  0  0  0  0
 30 31  2  0  0  0  0
 10 31  1  0  0  0  0
 31 32  1  0  0  0  0
M  END
> <ID>
CPD_5272

$$$$
CPD_5277
  Mrv1822 09091914012D          

 36 40  0  0  0  0            999 V2000
    0.4507    2.7649    0.0000 C   0  0  0  0  0  0  0  0  0  0  0  0
   -0.1014    2.1518    0.0000 C   0  0  0  0  0  0  0  0  0  0  0  0
    0.1536    1.3672    0.0000 O   0  0  0  0  0  0  0  0  0  0  0  0
   -0.3984    0.7541    0.0000 C   0  0  0  0  0  0  0  0  0  0  0  0
   -1.2054    0.9256    0.0000 O   0  0  0  0  0  0  0  0  0  0  0  0
   -0.1435   -0.0305    0.0000 C   0  0  0  0  0  0  0  0  0  0  0  0
   -0.6284   -0.6979    0.0000 C   0  0  0  0  0  0  0  0  0  0  0  0
   -1.4534   -0.6979    0.0000 N   0  0  0  0  0  0  0  0  0  0  0  0
   -1.8659   -1.4124    0.0000 C   0  0  0  0  0  0  0  0  0  0  0  0
   -1.4534   -2.1269    0.0000 O   0  0  0  0  0  0  0  0  0  0  0  0
   -2.6909   -1.4124    0.0000 C   0  0  0  0  0  0  0  0  0  0  0  0
   -3.1034   -2.1269    0.0000 C   0  0  0  0  0  0  0  0  0  0  0  0
   -3.9284   -2.1269    0.0000 C   0  0  0  0  0  0  0  0  0  0  0  0
   -4.3409   -1.4124    0.0000 C   0  0  0  0  0  0  0  0  0  0  0  0
   -3.9284   -0.6979    0.0000 C   0  0  0  0  0  0  0  0  0  0  0  0
   -3.1034   -0.6979    0.0000 C   0  0  0  0  0  0  0  0  0  0  0  0
   -2.6909   -2.8414    0.0000 C   0  0  0  0  0  0  0  0  0  0  0  0
   -1.8659   -2.8414    0.0000 C   0  0  0  0  0  0  0  0  0  0  0  0
   -1.4534   -3.5558    0.0000 C   0  0  0  0  0  0  0  0  0  0  0  0
   -0.6284   -3.5558    0.0000 C   0  0  0  0  0  0  0  0  0  0  0  0
   -0.2159   -4.2703    0.0000 C   0  0  0  0  0  0  0  0  0  0  0  0
    0.6046   -4.3565    0.0000 C   0  0  0  0  0  0  0  0  0  0  0  0
    0.7761   -5.1635    0.0000 C   0  0  0  0  0  0  0  0  0  0  0  0
    0.0616   -5.5760    0.0000 C   0  0  0  0  0  0  0  0  0  0  0  0
   -0.5515   -5.0240    0.0000 N   0  0  0  0  0  0  0  0  0  0  0  0
   -1.8659   -4.2703    0.0000 C   0  0  0  0  0  0  0  0  0  0  0  0
   -2.6909   -4.2703    0.0000 C   0  0  0  0  0  0  0  0  0  0  0  0
   -3.1034   -3.5558    0.0000 C   0  0  0  0  0  0  0  0  0  0  0  0
   -0.1435   -1.3654    0.0000 S   0  0  0  0  0  0  0  0  0  0  0  0
    0.6411   -1.1104    0.0000 C   0  0  0  0  0  0  0  0  0  0  0  0
    0.6411   -0.2854    0.0000 C   0  0  0  0  0  0  0  0  0  0  0  0
    1.3556    0.1271    0.0000 C   0  0  0  0  0  0  0  0  0  0  0  0
    2.0701   -0.2854    0.0000 C   0  0  0  0  0  0  0  0  0  0  0  0
    2.0701   -1.1104    0.0000 C   0  0  0  0  0  0  0  0  0  0  0  0
    1.3556   -1.5229    0.0000 C   0  0  0  0  0  0  0  0  0  0  0  0
    1.3556   -2.3479    0.0000 O   0  0  0  0  0  0  0  0  0  0  0  0
  1  2  1  0  0  0  0
  2  3  1  0  0  0  0
  3  4  1  0  0  0  0
  4  5  2  0  0  0  0
  4  6  1  0  0  0  0
  6  7  2  0  0  0  0
  7  8  1  0  0  0  0
  8  9  1  0  0  0  0
  9 10  2  0  0  0  0
  9 11  1  0  0  0  0
 11 12  2  0  0  0  0
 12 13  1  0  0  0  0
 13 14  2  0  0  0  0
 14 15  1  0  0  0  0
 15 16  2  0  0  0  0
 11 16  1  0  0  0  0
 12 17  1  0  0  0  0
 17 18  2  0  0  0  0
 18 19  1  0  0  0  0
 19 20  1  0  0  0  0
 20 21  1  0  0  0  0
 21 22  1  0  0  0  0
 22 23  1  0  0  0  0
 23 24  1  0  0  0  0
 24 25  1  0  0  0  0
 21 25  1  0  0  0  0
 19 26  2  0  0  0  0
 26 27  1  0  0  0  0
 27 28  2  0  0  0  0
 17 28  1  0  0  0  0
  7 29  1  0  0  0  0
 29 30  1  0  0  0  0
 30 31  2  0  0  0  0
  6 31  1  0  0  0  0
 31 32  1  0  0  0  0
 32 33  1  0  0  0  0
 33 34  1  0  0  0  0
 34 35  1  0  0  0  0
 30 35  1  0  0  0  0
 35 36  2  0  0  0  0
M  END
> <ID>
CPD_5277

$$$$
CPD_5282
  Mrv1822 09091914012D          

 36 40  0  0  0  0            999 V2000
    0.4507    2.7649    0.0000 C   0  0  0  0  0  0  0  0  0  0  0  0
   -0.1014    2.1518    0.0000 C   0  0  0  0  0  0  0  0  0  0  0  0
    0.1536    1.3672    0.0000 O   0  0  0  0  0  0  0  0  0  0  0  0
   -0.3984    0.7541    0.0000 C   0  0  0  0  0  0  0  0  0  0  0  0
   -1.2054    0.9256    0.0000 O   0  0  0  0  0  0  0  0  0  0  0  0
   -0.1435   -0.0305    0.0000 C   0  0  0  0  0  0  0  0  0  0  0  0
   -0.6284   -0.6979    0.0000 C   0  0  0  0  0  0  0  0  0  0  0  0
   -1.4534   -0.6979    0.0000 N   0  0  0  0  0  0  0  0  0  0  0  0
   -1.8659   -1.4124    0.0000 C   0  0  0  0  0  0  0  0  0  0  0  0
   -1.4534   -2.1269    0.0000 O   0  0  0  0  0  0  0  0  0  0  0  0
   -2.6909   -1.4124    0.0000 C   0  0  0  0  0  0  0  0  0  0  0  0
   -3.1034   -2.1269    0.0000 C   0  0  0  0  0  0  0  0  0  0  0  0
   -3.9284   -2.1269    0.0000 C   0  0  0  0  0  0  0  0  0  0  0  0
   -4.3409   -1.4124    0.0000 C   0  0  0  0  0  0  0  0  0  0  0  0
   -3.9284   -0.6979    0.0000 C   0  0  0  0  0  0  0  0  0  0  0  0
   -3.1034   -0.6979    0.0000 C   0  0  0  0  0  0  0  0  0  0  0  0
   -2.6909   -2.8414    0.0000 C   0  0  0  0  0  0  0  0  0  0  0  0
   -1.8659   -2.8414    0.0000 C   0  0  0  0  0  0  0  0  0  0  0  0
   -1.4534   -3.5558    0.0000 C   0  0  0  0  0  0  0  0  0  0  0  0
   -0.6284   -3.5558    0.0000 Cl  0  0  0  0  0  0  0  0  0  0  0  0
   -1.8659   -4.2703    0.0000 C   0  0  0  0  0  0  0  0  0  0  0  0
   -2.6909   -4.2703    0.0000 C   0  0  0  0  0  0  0  0  0  0  0  0
   -3.1034   -3.5558    0.0000 C   0  0  0  0  0  0  0  0  0  0  0  0
   -3.1034   -4.9848    0.0000 C   0  0  0  0  0  0  0  0  0  0  0  0
   -2.7679   -5.7384    0.0000 N   0  0  0  0  0  0  0  0  0  0  0  0
   -3.3810   -6.2905    0.0000 N   0  0  0  0  0  0  0  0  0  0  0  0
   -4.0954   -5.8780    0.0000 N   0  0  0  0  0  0  0  0  0  0  0  0
   -3.9239   -5.0710    0.0000 N   0  0  0  0  0  0  0  0  0  0  0  0
   -0.1435   -1.3654    0.0000 S   0  0  0  0  0  0  0  0  0  0  0  0
    0.6411   -1.1104    0.0000 C   0  0  0  0  0  0  0  0  0  0  0  0
    0.6411   -0.2854    0.0000 C   0  0  0  0  0  0  0  0  0  0  0  0
    1.3556    0.1271    0.0000 C   0  0  0  0  0  0  0  0  0  0  0  0
    2.0701   -0.2854    0.0000 C   0  0  0  0  0  0  0  0  0  0  0  0
    2.0701   -1.1104    0.0000 C   0  0  0  0  0  0  0  0  0  0  0  0
    1.3556   -1.5229    0.0000 C   0  0  0  0  0  0  0  0  0  0  0  0
    1.3556   -2.3479    0.0000 O   0  0  0  0  0  0  0  0  0  0  0  0
  1  2  1  0  0  0  0
  2  3  1  0  0  0  0
  3  4  1  0  0  0  0
  4  5  2  0  0  0  0
  4  6  1  0  0  0  0
  6  7  2  0  0  0  0
  7  8  1  0  0  0  0
  8  9  1  0  0  0  0
  9 10  2  0  0  0  0
  9 11  1  0  0  0  0
 11 12  2  0  0  0  0
 12 13  1  0  0  0  0
 13 14  2  0  0  0  0
 14 15  1  0  0  0  0
 15 16  2  0  0  0  0
 11 16  1  0  0  0  0
 12 17  1  0  0  0  0
 17 18  2  0  0  0  0
 18 19  1  0  0  0  0
 19 20  1  0  0  0  0
 19 21  2  0  0  0  0
 21 22  1  0  0  0  0
 22 23  2  0  0  0  0
 17 23  1  0  0  0  0
 22 24  1  0  0  0  0
 24 25  2  0  0  0  0
 25 26  1  0  0  0  0
 26 27  2  0  0  0  0
 27 28  1  0  0  0  0
 24 28  1  0  0  0  0
  7 29  1  0  0  0  0
 29 30  1  0  0  0  0
 30 31  2  0  0  0  0
  6 31  1  0  0  0  0
 31 32  1  0  0  0  0
 32 33  1  0  0  0  0
 33 34  1  0  0  0  0
 34 35  1  0  0  0  0
 30 35  1  0  0  0  0
 35 36  2  0  0  0  0
M  END
> <ID>
CPD_5282

$$$$
CPD_5287
  Mrv1822 09091914012D          

 35 38  0  0  0  0            999 V2000
    0.4507    2.7649    0.0000 C   0  0  0  0  0  0  0  0  0  0  0  0
   -0.1014    2.1518    0.0000 C   0  0  0  0  0  0  0  0  0  0  0  0
    0.1536    1.3672    0.0000 O   0  0  0  0  0  0  0  0  0  0  0  0
   -0.3984    0.7541    0.0000 C   0  0  0  0  0  0  0  0  0  0  0  0
   -1.2054    0.9256    0.0000 O   0  0  0  0  0  0  0  0  0  0  0  0
   -0.1435   -0.0305    0.0000 C   0  0  0  0  0  0  0  0  0  0  0  0
   -0.6284   -0.6979    0.0000 C   0  0  0  0  0  0  0  0  0  0  0  0
   -1.4534   -0.6979    0.0000 N   0  0  0  0  0  0  0  0  0  0  0  0
   -1.8659   -1.4124    0.0000 C   0  0  0  0  0  0  0  0  0  0  0  0
   -1.4534   -2.1269    0.0000 O   0  0  0  0  0  0  0  0  0  0  0  0
   -2.6909   -1.4124    0.0000 C   0  0  0  0  0  0  0  0  0  0  0  0
   -3.1034   -2.1269    0.0000 C   0  0  0  0  0  0  0  0  0  0  0  0
   -3.9284   -2.1269    0.0000 C   0  0  0  0  0  0  0  0  0  0  0  0
   -4.3409   -1.4124    0.0000 C   0  0  0  0  0  0  0  0  0  0  0  0
   -3.9284   -0.6979    0.0000 C   0  0  0  0  0  0  0  0  0  0  0  0
   -3.1034   -0.6979    0.0000 C   0  0  0  0  0  0  0  0  0  0  0  0
   -2.6909   -2.8414    0.0000 C   0  0  0  0  0  0  0  0  0  0  0  0
   -1.8659   -2.8414    0.0000 C   0  0  0  0  0  0  0  0  0  0  0  0
   -1.4534   -3.5558    0.0000 C   0  0  0  0  0  0  0  0  0  0  0  0
   -1.8659   -4.2703    0.0000 C   0  0  0  0  0  0  0  0  0  0  0  0
   -1.4534   -4.9848    0.0000 C   0  0  0  0  0  0  0  0  0  0  0  0
   -0.6284   -4.9848    0.0000 N   0  0  0  0  0  0  0  0  0  0  0  0
   -0.2159   -5.6992    0.0000 C   0  0  0  0  0  0  0  0  0  0  0  0
   -0.6284   -6.4137    0.0000 C   0  0  0  0  0  0  0  0  0  0  0  0
    0.6091   -5.6992    0.0000 C   0  0  0  0  0  0  0  0  0  0  0  0
   -2.6909   -4.2703    0.0000 C   0  0  0  0  0  0  0  0  0  0  0  0
   -3.1034   -3.5558    0.0000 C   0  0  0  0  0  0  0  0  0  0  0  0
   -0.1435   -1.3654    0.0000 S   0  0  0  0  0  0  0  0  0  0  0  0
    0.6411   -1.1104    0.0000 C   0  0  0  0  0  0  0  0  0  0  0  0
    0.6411   -0.2854    0.0000 C   0  0  0  0  0  0  0  0  0  0  0  0
    1.3556    0.1271    0.0000 C   0  0  0  0  0  0  0  0  0  0  0  0
    2.0701   -0.2854    0.0000 C   0  0  0  0  0  0  0  0  0  0  0  0
    2.0701   -1.1104    0.0000 C   0  0  0  0  0  0  0  0  0  0  0  0
    1.3556   -1.5229    0.0000 C   0  0  0  0  0  0  0  0  0  0  0  0
    1.3556   -2.3479    0.0000 O   0  0  0  0  0  0  0  0  0  0  0  0
  1  2  1  0  0  0  0
  2  3  1  0  0  0  0
  3  4  1  0  0  0  0
  4  5  2  0  0  0  0
  4  6  1  0  0  0  0
  6  7  2  0  0  0  0
  7  8  1  0  0  0  0
  8  9  1  0  0  0  0
  9 10  2  0  0  0  0
  9 11  1  0  0  0  0
 11 12  2  0  0  0  0
 12 13  1  0  0  0  0
 13 14  2  0  0  0  0
 14 15  1  0  0  0  0
 15 16  2  0  0  0  0
 11 16  1  0  0  0  0
 12 17  1  0  0  0  0
 17 18  2  0  0  0  0
 18 19  1  0  0  0  0
 19 20  2  0  0  0  0
 20 21  1  0  0  0  0
 21 22  1  0  0  0  0
 22 23  1  0  0  0  0
 23 24  1  0  0  0  0
 23 25  1  0  0  0  0
 20 26  1  0  0  0  0
 26 27  2  0  0  0  0
 17 27  1  0  0  0  0
  7 28  1  0  0  0  0
 28 29  1  0  0  0  0
 29 30  2  0  0  0  0
  6 30  1  0  0  0  0
 30 31  1  0  0  0  0
 31 32  1  0  0  0  0
 32 33  1  0  0  0  0
 33 34  1  0  0  0  0
 29 34  1  0  0  0  0
 34 35  2  0  0  0  0
M  END
> <ID>
CPD_5287

$$$$
CPD_5292
  Mrv1822 09091914012D          

 24 26  0  0  0  0            999 V2000
   -2.8579    5.7750    0.0000 C   0  0  0  0  0  0  0  0  0  0  0  0
   -2.8579    4.9500    0.0000 O   0  0  0  0  0  0  0  0  0  0  0  0
   -3.5724    4.5375    0.0000 C   0  0  0  0  0  0  0  0  0  0  0  0
   -3.5724    3.7125    0.0000 C   0  0  0  0  0  0  0  0  0  0  0  0
   -4.2868    3.3000    0.0000 C   0  0  0  0  0  0  0  0  0  0  0  0
   -5.0013    3.7125    0.0000 C   0  0  0  0  0  0  0  0  0  0  0  0
   -5.7158    3.3000    0.0000 O   0  0  0  0  0  0  0  0  0  0  0  0
   -5.0013    4.5375    0.0000 C   0  0  0  0  0  0  0  0  0  0  0  0
   -5.7158    4.9500    0.0000 N   0  0  0  0  0  0  0  0  0  0  0  0
   -4.2868    4.9500    0.0000 C   0  0  0  0  0  0  0  0  0  0  0  0
   -2.8579    3.3000    0.0000 C   0  0  0  0  0  0  0  0  0  0  0  0
   -2.1434    3.7125    0.0000 N   0  0  0  0  0  0  0  0  0  0  0  0
   -1.4289    3.3000    0.0000 N   0  0  0  0  0  0  0  0  0  0  0  0
   -1.4289    2.4750    0.0000 C   0  0  0  0  0  0  0  0  0  0  0  0
   -2.1434    2.0625    0.0000 C   0  0  0  0  0  0  0  0  0  0  0  0
   -2.8579    2.4750    0.0000 C   0  0  0  0  0  0  0  0  0  0  0  0
   -0.7145    2.0625    0.0000 C   0  0  0  0  0  0  0  0  0  0  0  0
   -0.7145    1.2375    0.0000 O   0  0  0  0  0  0  0  0  0  0  0  0
    0.0000    2.4750    0.0000 N   0  0  0  0  0  0  0  0  0  0  0  0
    0.7145    2.0625    0.0000 C   0  0  0  0  0  0  0  0  0  0  0  0
    1.4289    2.4750    0.0000 C   0  0  0  0  0  0  0  0  0  0  0  0
    2.1434    2.0625    0.0000 C   0  0  0  0  0  0  0  0  0  0  0  0
    2.9684    2.0625    0.0000 C   0  0  0  0  0  0  0  0  0  0  0  0
    2.5559    1.3480    0.0000 C   0  0  0  0  0  0  0  0  0  0  0  0
  1  2  1  0  0  0  0
  2  3  1  0  0  0  0
  3  4  2  0  0  0  0
  4  5  1  0  0  0  0
  5  6  2  0  0  0  0
  6  7  1  0  0  0  0
  6  8  1  0  0  0  0
  8  9  1  0  0  0  0
  8 10  2  0  0  0  0
  3 10  1  0  0  0  0
  4 11  1  0  0  0  0
 11 12  2  0  0  0  0
 12 13  1  0  0  0  0
 13 14  2  0  0  0  0
 14 15  1  0  0  0  0
 15 16  2  0  0  0  0
 11 16  1  0  0  0  0
 14 17  1  0  0  0  0
 17 18  2  0  0  0  0
 17 19  1  0  0  0  0
 19 20  1  0  0  0  0
 20 21  1  0  0  0  0
 21 22  1  0  0  0  0
 22 23  1  0  0  0  0
 23 24  1  0  0  0  0
 22 24  1  0  0  0  0
M  END
> <ID>
CPD_5292

$$$$
CPD_5297
  Mrv1822 09091914012D          

 19 20  0  0  0  0            999 V2000
    0.0000   -0.0000    0.0000 C   0  0  0  0  0  0  0  0  0  0  0  0
    0.7145   -0.4125    0.0000 O   0  0  0  0  0  0  0  0  0  0  0  0
    0.7145   -1.2375    0.0000 C   0  0  0  0  0  0  0  0  0  0  0  0
    1.4289   -1.6500    0.0000 C   0  0  0  0  0  0  0  0  0  0  0  0
    1.4289   -2.4750    0.0000 C   0  0  0  0  0  0  0  0  0  0  0  0
    0.7145   -2.8875    0.0000 C   0  0  0  0  0  0  0  0  0  0  0  0
    0.7145   -3.7125    0.0000 O   0  0  0  0  0  0  0  0  0  0  0  0
    0.0000   -2.4750    0.0000 C   0  0  0  0  0  0  0  0  0  0  0  0
   -0.7145   -2.8875    0.0000 N   0  0  0  0  0  0  0  0  0  0  0  0
    0.0000   -1.6500    0.0000 C   0  0  0  0  0  0  0  0  0  0  0  0
    2.1434   -1.2375    0.0000 C   0  0  0  0  0  0  0  0  0  0  0  0
    2.1434   -0.4125    0.0000 C   0  0  0  0  0  0  0  0  0  0  0  0
    2.8579   -0.0000    0.0000 C   0  0  0  0  0  0  0  0  0  0  0  0
    2.8579    0.8250    0.0000 C   0  0  0  0  0  0  0  0  0  0  0  0
    3.5724    1.2375    0.0000 C   0  0  0  0  0  0  0  0  0  0  0  0
    3.5724    2.0625    0.0000 N   0  0  0  0  0  0  0  0  0  0  0  0
    3.5724   -0.4125    0.0000 C   0  0  0  0  0  0  0  0  0  0  0  0
    3.5724   -1.2375    0.0000 C   0  0  0  0  0  0  0  0  0  0  0  0
    2.8579   -1.6500    0.0000 C   0  0  0  0  0  0  0  0  0  0  0  0
  1  2  1  0  0  0  0
  2  3  1  0  0  0  0
  3  4  2  0  0  0  0
  4  5  1  0  0  0  0
  5  6  2  0  0  0  0
  6  7  1  0  0  0  0
  6  8  1  0  0  0  0
  8  9  1  0  0  0  0
  8 10  2  0  0  0  0
  3 10  1  0  0  0  0
  4 11  1  0  0  0  0
 11 12  2  0  0  0  0
 12 13  1  0  0  0  0
 13 14  1  0  0  0  0
 14 15  1  0  0  0  0
 15 16  1  0  0  0  0
 13 17  2  0  0  0  0
 17 18  1  0  0  0  0
 18 19  2  0  0  0  0
 11 19  1  0  0  0  0
M  END
> <ID>
CPD_5297

$$$$
CPD_5302
  Mrv1822 09091914012D          

 31 33  0  0  0  0            999 V2000
    0.7145   -2.0625    0.0000 C   0  0  0  0  0  0  0  0  0  0  0  0
    1.4289   -2.4750    0.0000 C   0  0  0  0  0  0  0  0  0  0  0  0
    1.4289   -3.3000    0.0000 O   0  0  0  0  0  0  0  0  0  0  0  0
    2.1434   -3.7125    0.0000 C   0  0  0  0  0  0  0  0  0  0  0  0
    2.8579   -3.3000    0.0000 O   0  0  0  0  0  0  0  0  0  0  0  0
    2.1434   -4.5375    0.0000 C   0  0  0  0  0  0  0  0  0  0  0  0
    2.8579   -4.9500    0.0000 C   0  0  0  0  0  0  0  0  0  0  0  0
    3.5724   -4.5375    0.0000 F   0  0  0  0  0  0  0  0  0  0  0  0
    2.8579   -5.7750    0.0000 C   0  0  0  0  0  0  0  0  0  0  0  0
    2.1434   -6.1875    0.0000 C   0  0  0  0  0  0  0  0  0  0  0  0
    1.4289   -5.7750    0.0000 C   0  0  0  0  0  0  0  0  0  0  0  0
    1.4289   -4.9500    0.0000 C   0  0  0  0  0  0  0  0  0  0  0  0
    3.5724   -6.1875    0.0000 C   0  0  0  0  0  0  0  0  0  0  0  0
    4.2868   -5.7750    0.0000 C   0  0  0  0  0  0  0  0  0  0  0  0
    4.2868   -4.9500    0.0000 C   0  0  0  0  0  0  0  0  0  0  0  0
    5.0013   -6.1875    0.0000 C   0  0  0  0  0  0  0  0  0  0  0  0
    5.7158   -5.7750    0.0000 N   0  0  0  0  0  0  0  0  0  0  0  0
    6.4302   -6.1875    0.0000 S   0  0  0  0  0  0  0  0  0  0  0  0
    6.0177   -6.9020    0.0000 O   0  0  0  0  0  0  0  0  0  0  0  0
    6.8427   -5.4730    0.0000 O   0  0  0  0  0  0  0  0  0  0  0  0
    7.1447   -6.6000    0.0000 C   0  0  0  0  0  0  0  0  0  0  0  0
    7.8592   -6.1875    0.0000 C   0  0  0  0  0  0  0  0  0  0  0  0
    8.5737   -6.6000    0.0000 C   0  0  0  0  0  0  0  0  0  0  0  0
    8.5737   -7.4250    0.0000 C   0  0  0  0  0  0  0  0  0  0  0  0
    9.2881   -7.8375    0.0000 O   0  0  0  0  0  0  0  0  0  0  0  0
   10.0026   -7.4250    0.0000 C   0  0  0  0  0  0  0  0  0  0  0  0
    7.8592   -7.8375    0.0000 C   0  0  0  0  0  0  0  0  0  0  0  0
    7.1447   -7.4250    0.0000 C   0  0  0  0  0  0  0  0  0  0  0  0
    5.0013   -7.0125    0.0000 C   0  0  0  0  0  0  0  0  0  0  0  0
    4.2868   -7.4250    0.0000 C   0  0  0  0  0  0  0  0  0  0  0  0
    3.5724   -7.0125    0.0000 C   0  0  0  0  0  0  0  0  0  0  0  0
  1  2  1  0  0  0  0
  2  3  1  0  0  0  0
  3  4  1  0  0  0  0
  4  5  2  0  0  0  0
  4  6  1  0  0  0  0
  6  7  2  0  0  0  0
  7  8  1  0  0  0  0
  7  9  1  0  0  0  0
  9 10  2  0  0  0  0
 10 11  1  0  0  0  0
 11 12  2  0  0  0  0
  6 12  1  0  0  0  0
  9 13  1  0  0  0  0
 13 14  2  0  0  0  0
 14 15  1  0  0  0  0
 14 16  1  0  0  0  0
 16 17  1  0  0  0  0
 17 18  1  0  0  0  0
 18 19  2  0  0  0  0
 18 20  2  0  0  0  0
 18 21  1  0  0  0  0
 21 22  2  0  0  0  0
 22 23  1  0  0  0  0
 23 24  2  0  0  0  0
 24 25  1  0  0  0  0
 25 26  1  0  0  0  0
 24 27  1  0  0  0  0
 27 28  2  0  0  0  0
 21 28  1  0  0  0  0
 16 29  2  0  0  0  0
 29 30  1  0  0  0  0
 30 31  2  0  0  0  0
 13 31  1  0  0  0  0
M  END
> <ID>
CPD_5302

$$$$
CPD_5307
  Mrv1822 09091914012D          

 30 33  0  0  0  0            999 V2000
   -2.1434    7.0125    0.0000 C   0  0  0  0  0  0  0  0  0  0  0  0
   -1.4289    6.6000    0.0000 O   0  0  0  0  0  0  0  0  0  0  0  0
   -1.4289    5.7750    0.0000 C   0  0  0  0  0  0  0  0  0  0  0  0
   -0.7145    5.3625    0.0000 C   0  0  0  0  0  0  0  0  0  0  0  0
   -0.7145    4.5375    0.0000 C   0  0  0  0  0  0  0  0  0  0  0  0
   -1.4289    4.1250    0.0000 C   0  0  0  0  0  0  0  0  0  0  0  0
   -2.1434    4.5375    0.0000 C   0  0  0  0  0  0  0  0  0  0  0  0
   -2.1434    5.3625    0.0000 C   0  0  0  0  0  0  0  0  0  0  0  0
   -1.4289    3.3000    0.0000 S   0  0  0  0  0  0  0  0  0  0  0  0
   -2.2539    3.3000    0.0000 O   0  0  0  0  0  0  0  0  0  0  0  0
   -0.6039    3.3000    0.0000 O   0  0  0  0  0  0  0  0  0  0  0  0
   -1.4289    2.4750    0.0000 N   0  0  0  0  0  0  0  0  0  0  0  0
   -0.7145    2.0625    0.0000 C   0  0  0  0  0  0  0  0  0  0  0  0
    0.0000    2.4750    0.0000 C   0  0  0  0  0  0  0  0  0  0  0  0
    0.7145    2.0625    0.0000 C   0  0  0  0  0  0  0  0  0  0  0  0
    0.7145    1.2375    0.0000 C   0  0  0  0  0  0  0  0  0  0  0  0
    0.0000    0.8250    0.0000 C   0  0  0  0  0  0  0  0  0  0  0  0
   -0.7145    1.2375    0.0000 C   0  0  0  0  0  0  0  0  0  0  0  0
   -1.4289    0.8250    0.0000 C   0  0  0  0  0  0  0  0  0  0  0  0
    0.0000   -0.0000    0.0000 C   0  0  0  0  0  0  0  0  0  0  0  0
   -0.7145   -0.4125    0.0000 C   0  0  0  0  0  0  0  0  0  0  0  0
   -0.7145   -1.2375    0.0000 C   0  0  0  0  0  0  0  0  0  0  0  0
    0.0000   -1.6500    0.0000 N   0  0  0  0  0  0  0  0  0  0  0  0
    0.7145   -1.2375    0.0000 C   0  0  0  0  0  0  0  0  0  0  0  0
    0.7145   -0.4125    0.0000 C   0  0  0  0  0  0  0  0  0  0  0  0
    1.4289   -0.0000    0.0000 C   0  0  0  0  0  0  0  0  0  0  0  0
    2.1434   -0.4125    0.0000 C   0  0  0  0  0  0  0  0  0  0  0  0
    2.1434   -1.2375    0.0000 C   0  0  0  0  0  0  0  0  0  0  0  0
    2.8579   -1.6500    0.0000 F   0  0  0  0  0  0  0  0  0  0  0  0
    1.4289   -1.6500    0.0000 C   0  0  0  0  0  0  0  0  0  0  0  0
  1  2  1  0  0  0  0
  2  3  1  0  0  0  0
  3  4  2  0  0  0  0
  4  5  1  0  0  0  0
  5  6  2  0  0  0  0
  6  7  1  0  0  0  0
  7  8  2  0  0  0  0
  3  8  1  0  0  0  0
  6  9  1  0  0  0  0
  9 10  2  0  0  0  0
  9 11  2  0  0  0  0
  9 12  1  0  0  0  0
 12 13  1  0  0  0  0
 13 14  2  0  0  0  0
 14 15  1  0  0  0  0
 15 16  2  0  0  0  0
 16 17  1  0  0  0  0
 17 18  2  0  0  0  0
 13 18  1  0  0  0  0
 18 19  1  0  0  0  0
 17 20  1  0  0  0  0
 20 21  2  0  0  0  0
 21 22  1  0  0  0  0
 22 23  2  0  0  0  0
 23 24  1  0  0  0  0
 24 25  2  0  0  0  0
 20 25  1  0  0  0  0
 25 26  1  0  0  0  0
 26 27  2  0  0  0  0
 27 28  1  0  0  0  0
 28 29  1  0  0  0  0
 28 30  2  0  0  0  0
 24 30  1  0  0  0  0
M  END
> <ID>
CPD_5307

$$$$
CPD_5312
  Mrv1822 09091914012D          

 32 34  0  0  0  0            999 V2000
    1.4289   -2.4750    0.0000 C   0  0  0  0  0  0  0  0  0  0  0  0
    1.4289   -3.3000    0.0000 C   0  0  0  0  0  0  0  0  0  0  0  0
    2.1434   -3.7125    0.0000 O   0  0  0  0  0  0  0  0  0  0  0  0
    2.1434   -4.5375    0.0000 C   0  0  0  0  0  0  0  0  0  0  0  0
    2.8579   -4.9500    0.0000 C   0  0  0  0  0  0  0  0  0  0  0  0
    2.8579   -5.7750    0.0000 C   0  0  0  0  0  0  0  0  0  0  0  0
    2.1434   -6.1875    0.0000 C   0  0  0  0  0  0  0  0  0  0  0  0
    1.4289   -5.7750    0.0000 C   0  0  0  0  0  0  0  0  0  0  0  0
    1.4289   -4.9500    0.0000 C   0  0  0  0  0  0  0  0  0  0  0  0
    2.1434   -7.0125    0.0000 N   0  0  0  0  0  0  0  0  0  0  0  0
    2.8579   -7.4250    0.0000 C   0  0  0  0  0  0  0  0  0  0  0  0
    2.8579   -8.2500    0.0000 C   0  0  0  0  0  0  0  0  0  0  0  0
    2.1434   -8.6625    0.0000 O   0  0  0  0  0  0  0  0  0  0  0  0
    3.5724   -8.6625    0.0000 O   0  0  0  0  0  0  0  0  0  0  0  0
    1.4289   -7.4250    0.0000 S   0  0  0  0  0  0  0  0  0  0  0  0
    1.0164   -6.7105    0.0000 O   0  0  0  0  0  0  0  0  0  0  0  0
    1.8414   -8.1395    0.0000 O   0  0  0  0  0  0  0  0  0  0  0  0
    0.7145   -7.8375    0.0000 C   0  0  0  0  0  0  0  0  0  0  0  0
    0.7145   -8.6625    0.0000 C   0  0  0  0  0  0  0  0  0  0  0  0
    0.0000   -9.0750    0.0000 C   0  0  0  0  0  0  0  0  0  0  0  0
   -0.7145   -8.6625    0.0000 C   0  0  0  0  0  0  0  0  0  0  0  0
   -0.7145   -7.8375    0.0000 C   0  0  0  0  0  0  0  0  0  0  0  0
    0.0000   -7.4250    0.0000 C   0  0  0  0  0  0  0  0  0  0  0  0
   -1.4289   -9.0750    0.0000 C   0  0  0  0  0  0  0  0  0  0  0  0
   -1.4289   -9.9000    0.0000 C   0  0  0  0  0  0  0  0  0  0  0  0
   -2.1434  -10.3125    0.0000 C   0  0  0  0  0  0  0  0  0  0  0  0
   -2.1434  -11.1375    0.0000 N   0  0  0  0  0  0  0  0  0  0  0  0
   -2.8579   -9.9000    0.0000 C   0  0  0  0  0  0  0  0  0  0  0  0
   -3.5724  -10.3125    0.0000 C   0  0  0  0  0  0  0  0  0  0  0  0
   -3.5724  -11.1375    0.0000 O   0  0  0  0  0  0  0  0  0  0  0  0
   -2.8579   -9.0750    0.0000 C   0  0  0  0  0  0  0  0  0  0  0  0
   -2.1434   -8.6625    0.0000 C   0  0  0  0  0  0  0  0  0  0  0  0
  1  2  1  0  0  0  0
  2  3  1  0  0  0  0
  3  4  1  0  0  0  0
  4  5  2  0  0  0  0
  5  6  1  0  0  0  0
  6  7  2  0  0  0  0
  7  8  1  0  0  0  0
  8  9  2  0  0  0  0
  4  9  1  0  0  0  0
  7 10  1  0  0  0  0
 10 11  1  0  0  0  0
 11 12  1  0  0  0  0
 12 13  1  0  0  0  0
 12 14  2  0  0  0  0
 10 15  1  0  0  0  0
 15 16  2  0  0  0  0
 15 17  2  0  0  0  0
 15 18  1  0  0  0  0
 18 19  2  0  0  0  0
 19 20  1  0  0  0  0
 20 21  2  0  0  0  0
 21 22  1  0  0  0  0
 22 23  2  0  0  0  0
 18 23  1  0  0  0  0
 21 24  1  0  0  0  0
 24 25  2  0  0  0  0
 25 26  1  0  0  0  0
 26 27  1  0  0  0  0
 26 28  2  0  0  0  0
 28 29  1  0  0  0  0
 29 30  1  0  0  0  0
 28 31  1  0  0  0  0
 31 32  2  0  0  0  0
 24 32  1  0  0  0  0
M  END
> <ID>
CPD_5312

$$$$
CPD_5317
  Mrv1822 09091914012D          

 36 39  0  0  0  0            999 V2000
   -4.2868   -3.3000    0.0000 C   0  0  0  0  0  0  0  0  0  0  0  0
   -4.2868   -4.1250    0.0000 C   0  0  0  0  0  0  0  0  0  0  0  0
   -3.5724   -4.5375    0.0000 O   0  0  0  0  0  0  0  0  0  0  0  0
   -3.5724   -5.3625    0.0000 C   0  0  0  0  0  0  0  0  0  0  0  0
   -2.8579   -5.7750    0.0000 C   0  0  0  0  0  0  0  0  0  0  0  0
   -2.8579   -6.6000    0.0000 C   0  0  0  0  0  0  0  0  0  0  0  0
   -3.5724   -7.0125    0.0000 C   0  0  0  0  0  0  0  0  0  0  0  0
   -4.2868   -6.6000    0.0000 C   0  0  0  0  0  0  0  0  0  0  0  0
   -4.2868   -5.7750    0.0000 C   0  0  0  0  0  0  0  0  0  0  0  0
   -3.5724   -7.8375    0.0000 N   0  0  0  0  0  0  0  0  0  0  0  0
   -2.8579   -8.2500    0.0000 C   0  0  0  0  0  0  0  0  0  0  0  0
   -2.8579   -9.0750    0.0000 C   0  0  0  0  0  0  0  0  0  0  0  0
   -3.5724   -9.4875    0.0000 O   0  0  0  0  0  0  0  0  0  0  0  0
   -2.1434   -9.4875    0.0000 O   0  0  0  0  0  0  0  0  0  0  0  0
   -4.2868   -8.2500    0.0000 S   0  0  0  0  0  0  0  0  0  0  0  0
   -4.6993   -7.5355    0.0000 O   0  0  0  0  0  0  0  0  0  0  0  0
   -3.8743   -8.9645    0.0000 O   0  0  0  0  0  0  0  0  0  0  0  0
   -5.0013   -8.6625    0.0000 C   0  0  0  0  0  0  0  0  0  0  0  0
   -5.0013   -9.4875    0.0000 C   0  0  0  0  0  0  0  0  0  0  0  0
   -5.7158   -9.9000    0.0000 C   0  0  0  0  0  0  0  0  0  0  0  0
   -6.4302   -9.4875    0.0000 C   0  0  0  0  0  0  0  0  0  0  0  0
   -6.4302   -8.6625    0.0000 C   0  0  0  0  0  0  0  0  0  0  0  0
   -5.7158   -8.2500    0.0000 C   0  0  0  0  0  0  0  0  0  0  0  0
   -7.1447   -9.9000    0.0000 C   0  0  0  0  0  0  0  0  0  0  0  0
   -7.1447  -10.7250    0.0000 N   0  0  0  0  0  0  0  0  0  0  0  0
   -7.8592  -11.1375    0.0000 C   0  0  0  0  0  0  0  0  0  0  0  0
   -8.5737  -10.7250    0.0000 C   0  0  0  0  0  0  0  0  0  0  0  0
   -8.5737   -9.9000    0.0000 C   0  0  0  0  0  0  0  0  0  0  0  0
   -7.8592   -9.4875    0.0000 C   0  0  0  0  0  0  0  0  0  0  0  0
   -7.8592  -11.9625    0.0000 N   0  0  0  0  0  0  0  0  0  0  0  0
   -7.1447  -12.3750    0.0000 C   0  0  0  0  0  0  0  0  0  0  0  0
   -7.1447  -13.2000    0.0000 C   0  0  0  0  0  0  0  0  0  0  0  0
   -7.8592  -13.6125    0.0000 C   0  0  0  0  0  0  0  0  0  0  0  0
   -7.8592  -14.4375    0.0000 N   0  0  0  0  0  0  0  0  0  0  0  0
   -8.5737  -13.2000    0.0000 C   0  0  0  0  0  0  0  0  0  0  0  0
   -8.5737  -12.3750    0.0000 C   0  0  0  0  0  0  0  0  0  0  0  0
  1  2  1  0  0  0  0
  2  3  1  0  0  0  0
  3  4  1  0  0  0  0
  4  5  2  0  0  0  0
  5  6  1  0  0  0  0
  6  7  2  0  0  0  0
  7  8  1  0  0  0  0
  8  9  2  0  0  0  0
  4  9  1  0  0  0  0
  7 10  1  0  0  0  0
 10 11  1  0  0  0  0
 11 12  1  0  0  0  0
 12 13  1  0  0  0  0
 12 14  2  0  0  0  0
 10 15  1  0  0  0  0
 15 16  2  0  0  0  0
 15 17  2  0  0  0  0
 15 18  1  0  0  0  0
 18 19  2  0  0  0  0
 19 20  1  0  0  0  0
 20 21  2  0  0  0  0
 21 22  1  0  0  0  0
 22 23  2  0  0  0  0
 18 23  1  0  0  0  0
 21 24  1  0  0  0  0
 24 25  2  0  0  0  0
 25 26  1  0  0  0  0
 26 27  2  0  0  0  0
 27 28  1  0  0  0  0
 28 29  2  0  0  0  0
 24 29  1  0  0  0  0
 26 30  1  0  0  0  0
 30 31  1  0  0  0  0
 31 32  1  0  0  0  0
 32 33  1  0  0  0  0
 33 34  1  0  0  0  0
 33 35  1  0  0  0  0
 35 36  1  0  0  0  0
 30 36  1  0  0  0  0
M  END
> <ID>
CPD_5317

$$$$
CPD_5322
  Mrv1822 09091914012D          

 22 24  0  0  0  0            999 V2000
   -0.7145    1.2375    0.0000 C   0  0  0  0  0  0  0  0  0  0  0  0
    0.0000    0.8250    0.0000 C   0  0  0  0  0  0  0  0  0  0  0  0
    0.0000   -0.0000    0.0000 O   0  0  0  0  0  0  0  0  0  0  0  0
    0.7145   -0.4125    0.0000 C   0  0  0  0  0  0  0  0  0  0  0  0
    1.4289   -0.0000    0.0000 O   0  0  0  0  0  0  0  0  0  0  0  0
    0.7145   -1.2375    0.0000 N   0  0  0  0  0  0  0  0  0  0  0  0
    1.3819   -1.7224    0.0000 N   0  0  0  0  0  0  0  0  0  0  0  0
    1.1270   -2.5070    0.0000 C   0  0  0  0  0  0  0  0  0  0  0  0
    0.3020   -2.5070    0.0000 C   0  0  0  0  0  0  0  0  0  0  0  0
    0.0470   -1.7224    0.0000 C   0  0  0  0  0  0  0  0  0  0  0  0
   -0.7376   -1.4675    0.0000 N   0  0  0  0  0  0  0  0  0  0  0  0
    1.6119   -3.1745    0.0000 C   0  0  0  0  0  0  0  0  0  0  0  0
    2.4324   -3.0882    0.0000 C   0  0  0  0  0  0  0  0  0  0  0  0
    2.9173   -3.7557    0.0000 C   0  0  0  0  0  0  0  0  0  0  0  0
    2.5817   -4.5094    0.0000 C   0  0  0  0  0  0  0  0  0  0  0  0
    1.7613   -4.5956    0.0000 C   0  0  0  0  0  0  0  0  0  0  0  0
    1.2763   -3.9282    0.0000 C   0  0  0  0  0  0  0  0  0  0  0  0
    3.0667   -5.1768    0.0000 C   0  0  0  0  0  0  0  0  0  0  0  0
    3.8917   -5.1768    0.0000 C   0  0  0  0  0  0  0  0  0  0  0  0
    4.1466   -5.9614    0.0000 C   0  0  0  0  0  0  0  0  0  0  0  0
    3.4792   -6.4463    0.0000 C   0  0  0  0  0  0  0  0  0  0  0  0
    2.8117   -5.9614    0.0000 S   0  0  0  0  0  0  0  0  0  0  0  0
  1  2  1  0  0  0  0
  2  3  1  0  0  0  0
  3  4  1  0  0  0  0
  4  5  2  0  0  0  0
  4  6  1  0  0  0  0
  6  7  1  0  0  0  0
  7  8  2  0  0  0  0
  8  9  1  0  0  0  0
  9 10  2  0  0  0  0
  6 10  1  0  0  0  0
 10 11  1  0  0  0  0
  8 12  1  0  0  0  0
 12 13  2  0  0  0  0
 13 14  1  0  0  0  0
 14 15  2  0  0  0  0
 15 16  1  0  0  0  0
 16 17  2  0  0  0  0
 12 17  1  0  0  0  0
 15 18  1  0  0  0  0
 18 19  2  0  0  0  0
 19 20  1  0  0  0  0
 20 21  2  0  0  0  0
 21 22  1  0  0  0  0
 18 22  1  0  0  0  0
M  END
> <ID>
CPD_5322

$$$$
CPD_5327
  Mrv1822 09091914012D          

 27 29  0  0  0  0            999 V2000
   -0.7145   -1.2375    0.0000 C   0  0  0  0  0  0  0  0  0  0  0  0
    0.0000   -1.6500    0.0000 C   0  0  0  0  0  0  0  0  0  0  0  0
    0.0000   -2.4750    0.0000 O   0  0  0  0  0  0  0  0  0  0  0  0
    0.7145   -2.8875    0.0000 C   0  0  0  0  0  0  0  0  0  0  0  0
    1.4289   -2.4750    0.0000 O   0  0  0  0  0  0  0  0  0  0  0  0
    0.7145   -3.7125    0.0000 N   0  0  0  0  0  0  0  0  0  0  0  0
    1.3819   -4.1974    0.0000 N   0  0  0  0  0  0  0  0  0  0  0  0
    1.1270   -4.9820    0.0000 C   0  0  0  0  0  0  0  0  0  0  0  0
    0.3020   -4.9820    0.0000 C   0  0  0  0  0  0  0  0  0  0  0  0
    0.0470   -4.1974    0.0000 C   0  0  0  0  0  0  0  0  0  0  0  0
   -0.7376   -3.9425    0.0000 N   0  0  0  0  0  0  0  0  0  0  0  0
    1.6119   -5.6495    0.0000 C   0  0  0  0  0  0  0  0  0  0  0  0
    2.4324   -5.5632    0.0000 C   0  0  0  0  0  0  0  0  0  0  0  0
    2.9173   -6.2307    0.0000 C   0  0  0  0  0  0  0  0  0  0  0  0
    2.5817   -6.9844    0.0000 C   0  0  0  0  0  0  0  0  0  0  0  0
    1.7613   -7.0706    0.0000 C   0  0  0  0  0  0  0  0  0  0  0  0
    1.2763   -6.4032    0.0000 C   0  0  0  0  0  0  0  0  0  0  0  0
    3.0667   -7.6518    0.0000 C   0  0  0  0  0  0  0  0  0  0  0  0
    3.8871   -7.5656    0.0000 C   0  0  0  0  0  0  0  0  0  0  0  0
    4.3721   -8.2330    0.0000 C   0  0  0  0  0  0  0  0  0  0  0  0
    4.0365   -8.9867    0.0000 C   0  0  0  0  0  0  0  0  0  0  0  0
    3.2160   -9.0729    0.0000 C   0  0  0  0  0  0  0  0  0  0  0  0
    2.7311   -8.4055    0.0000 C   0  0  0  0  0  0  0  0  0  0  0  0
    5.1925   -8.1468    0.0000 C   0  0  0  0  0  0  0  0  0  0  0  0
    6.0130   -8.0605    0.0000 F   0  0  0  0  0  0  0  0  0  0  0  0
    5.2788   -8.9672    0.0000 F   0  0  0  0  0  0  0  0  0  0  0  0
    5.1063   -7.3263    0.0000 F   0  0  0  0  0  0  0  0  0  0  0  0
  1  2  1  0  0  0  0
  2  3  1  0  0  0  0
  3  4  1  0  0  0  0
  4  5  2  0  0  0  0
  4  6  1  0  0  0  0
  6  7  1  0  0  0  0
  7  8  2  0  0  0  0
  8  9  1  0  0  0  0
  9 10  2  0  0  0  0
  6 10  1  0  0  0  0
 10 11  1  0  0  0  0
  8 12  1  0  0  0  0
 12 13  2  0  0  0  0
 13 14  1  0  0  0  0
 14 15  2  0  0  0  0
 15 16  1  0  0  0  0
 16 17  2  0  0  0  0
 12 17  1  0  0  0  0
 15 18  1  0  0  0  0
 18 19  2  0  0  0  0
 19 20  1  0  0  0  0
 20 21  2  0  0  0  0
 21 22  1  0  0  0  0
 22 23  2  0  0  0  0
 18 23  1  0  0  0  0
 20 24  1  0  0  0  0
 24 25  1  0  0  0  0
 24 26  1  0  0  0  0
 24 27  1  0  0  0  0
M  END
> <ID>
CPD_5327

$$$$
CPD_5332
  Mrv1822 09091914012D          

 23 24  0  0  0  0            999 V2000
    2.1434   -0.4125    0.0000 C   0  0  0  0  0  0  0  0  0  0  0  0
    1.4289   -0.0000    0.0000 O   0  0  0  0  0  0  0  0  0  0  0  0
    0.7145   -0.4125    0.0000 C   0  0  0  0  0  0  0  0  0  0  0  0
    0.0000   -0.0000    0.0000 O   0  0  0  0  0  0  0  0  0  0  0  0
    0.7145   -1.2375    0.0000 C   0  0  0  0  0  0  0  0  0  0  0  0
    0.0000   -1.6500    0.0000 C   0  0  0  0  0  0  0  0  0  0  0  0
    0.0000   -2.4750    0.0000 N   0  0  0  0  0  0  0  0  0  0  0  0
    0.7145   -2.8875    0.0000 C   0  0  0  0  0  0  0  0  0  0  0  0
    1.4289   -2.4750    0.0000 C   0  0  0  0  0  0  0  0  0  0  0  0
    1.4289   -1.6500    0.0000 C   0  0  0  0  0  0  0  0  0  0  0  0
    2.1434   -1.2375    0.0000 N   0  0  0  0  0  0  0  0  0  0  0  0
   -0.7145   -1.2375    0.0000 C   0  0  0  0  0  0  0  0  0  0  0  0
   -1.4289   -1.6500    0.0000 C   0  0  0  0  0  0  0  0  0  0  0  0
   -1.4289   -2.4750    0.0000 O   0  0  0  0  0  0  0  0  0  0  0  0
   -2.1434   -2.8875    0.0000 C   0  0  0  0  0  0  0  0  0  0  0  0
   -2.1434   -1.2375    0.0000 N   0  0  0  0  0  0  0  0  0  0  0  0
   -2.1434   -0.4125    0.0000 C   0  0  0  0  0  0  0  0  0  0  0  0
   -2.8579   -0.0000    0.0000 O   0  0  0  0  0  0  0  0  0  0  0  0
   -3.5724   -0.4125    0.0000 C   0  0  0  0  0  0  0  0  0  0  0  0
   -1.4289   -0.0000    0.0000 C   0  0  0  0  0  0  0  0  0  0  0  0
   -1.4289    0.8250    0.0000 O   0  0  0  0  0  0  0  0  0  0  0  0
   -0.7145    1.2375    0.0000 C   0  0  0  0  0  0  0  0  0  0  0  0
   -0.7145   -0.4125    0.0000 C   0  0  0  0  0  0  0  0  0  0  0  0
  1  2  1  0  0  0  0
  2  3  1  0  0  0  0
  3  4  2  0  0  0  0
  3  5  1  0  0  0  0
  5  6  2  0  0  0  0
  6  7  1  0  0  0  0
  7  8  2  0  0  0  0
  8  9  1  0  0  0  0
  9 10  2  0  0  0  0
  5 10  1  0  0  0  0
 10 11  1  0  0  0  0
  6 12  1  0  0  0  0
 12 13  2  0  0  0  0
 13 14  1  0  0  0  0
 14 15  1  0  0  0  0
 13 16  1  0  0  0  0
 16 17  2  0  0  0  0
 17 18  1  0  0  0  0
 18 19  1  0  0  0  0
 17 20  1  0  0  0  0
 20 21  1  0  0  0  0
 21 22  1  0  0  0  0
 20 23  2  0  0  0  0
 12 23  1  0  0  0  0
M  END
> <ID>
CPD_5332

$$$$
CPD_5337
  Mrv1822 09091914012D          

 26 28  0  0  0  0            999 V2000
    6.9246    2.3479    0.0000 C   0  0  0  0  0  0  0  0  0  0  0  0
    6.2102    1.9354    0.0000 O   0  0  0  0  0  0  0  0  0  0  0  0
    5.4957    2.3479    0.0000 C   0  0  0  0  0  0  0  0  0  0  0  0
    4.7812    1.9354    0.0000 C   0  0  0  0  0  0  0  0  0  0  0  0
    4.0668    2.3479    0.0000 C   0  0  0  0  0  0  0  0  0  0  0  0
    4.0668    3.1729    0.0000 C   0  0  0  0  0  0  0  0  0  0  0  0
    3.3523    3.5854    0.0000 O   0  0  0  0  0  0  0  0  0  0  0  0
    3.3523    4.4104    0.0000 C   0  0  0  0  0  0  0  0  0  0  0  0
    4.7812    3.5854    0.0000 N   0  0  0  0  0  0  0  0  0  0  0  0
    5.4957    3.1729    0.0000 C   0  0  0  0  0  0  0  0  0  0  0  0
    6.2102    3.5854    0.0000 O   0  0  0  0  0  0  0  0  0  0  0  0
    6.9246    3.1729    0.0000 C   0  0  0  0  0  0  0  0  0  0  0  0
    3.3523    1.9354    0.0000 C   0  0  0  0  0  0  0  0  0  0  0  0
    3.3523    1.1104    0.0000 C   0  0  0  0  0  0  0  0  0  0  0  0
    4.0668    0.6979    0.0000 F   0  0  0  0  0  0  0  0  0  0  0  0
    2.6378    0.6979    0.0000 C   0  0  0  0  0  0  0  0  0  0  0  0
    2.6378   -0.1271    0.0000 F   0  0  0  0  0  0  0  0  0  0  0  0
    1.9233    1.1104    0.0000 C   0  0  0  0  0  0  0  0  0  0  0  0
    1.1387    0.8555    0.0000 N   0  0  0  0  0  0  0  0  0  0  0  0
    0.6538    1.5229    0.0000 C   0  0  0  0  0  0  0  0  0  0  0  0
    1.1387    2.1904    0.0000 N   0  0  0  0  0  0  0  0  0  0  0  0
    1.9233    1.9354    0.0000 C   0  0  0  0  0  0  0  0  0  0  0  0
    2.6378    2.3479    0.0000 C   0  0  0  0  0  0  0  0  0  0  0  0
    0.8838    0.0709    0.0000 C   0  0  0  0  0  0  0  0  0  0  0  0
    1.4358   -0.5422    0.0000 C   0  0  0  0  0  0  0  0  0  0  0  0
    0.0768   -0.1006    0.0000 C   0  0  0  0  0  0  0  0  0  0  0  0
  1  2  1  0  0  0  0
  2  3  1  0  0  0  0
  3  4  2  0  0  0  0
  4  5  1  0  0  0  0
  5  6  2  0  0  0  0
  6  7  1  0  0  0  0
  7  8  1  0  0  0  0
  6  9  1  0  0  0  0
  9 10  2  0  0  0  0
  3 10  1  0  0  0  0
 10 11  1  0  0  0  0
 11 12  1  0  0  0  0
  5 13  1  0  0  0  0
 13 14  2  0  0  0  0
 14 15  1  0  0  0  0
 14 16  1  0  0  0  0
 16 17  1  0  0  0  0
 16 18  2  0  0  0  0
 18 19  1  0  0  0  0
 19 20  1  0  0  0  0
 20 21  2  0  0  0  0
 21 22  1  0  0  0  0
 18 22  1  0  0  0  0
 22 23  2  0  0  0  0
 13 23  1  0  0  0  0
 19 24  1  0  0  0  0
 24 25  1  0  0  0  0
 24 26  1  0  0  0  0
M  END
> <ID>
CPD_5337

$$$$
CPD_5342
  Mrv1822 09091914012D          

 33 36  0  0  0  0            999 V2000
    0.7145    2.8875    0.0000 C   0  0  0  0  0  0  0  0  0  0  0  0
    0.7145    2.0625    0.0000 C   0  0  0  0  0  0  0  0  0  0  0  0
   -0.1105    2.0625    0.0000 C   0  0  0  0  0  0  0  0  0  0  0  0
    1.5395    2.0625    0.0000 C   0  0  0  0  0  0  0  0  0  0  0  0
    0.7145    1.2375    0.0000 N   0  0  0  0  0  0  0  0  0  0  0  0
    1.4289    0.8250    0.0000 C   0  0  0  0  0  0  0  0  0  0  0  0
    2.1434    1.2375    0.0000 O   0  0  0  0  0  0  0  0  0  0  0  0
    1.4289    0.0000    0.0000 C   0  0  0  0  0  0  0  0  0  0  0  0
    2.1434   -0.4125    0.0000 C   0  0  0  0  0  0  0  0  0  0  0  0
    2.8579    0.0000    0.0000 C   0  0  0  0  0  0  0  0  0  0  0  0
    3.5724   -0.4125    0.0000 C   0  0  0  0  0  0  0  0  0  0  0  0
    3.5724   -1.2375    0.0000 C   0  0  0  0  0  0  0  0  0  0  0  0
    2.8579   -1.6500    0.0000 C   0  0  0  0  0  0  0  0  0  0  0  0
    2.1434   -1.2375    0.0000 C   0  0  0  0  0  0  0  0  0  0  0  0
    1.4289   -1.6500    0.0000 C   0  0  0  0  0  0  0  0  0  0  0  0
    0.7145   -1.2375    0.0000 C   0  0  0  0  0  0  0  0  0  0  0  0
    0.7145   -0.4125    0.0000 C   0  0  0  0  0  0  0  0  0  0  0  0
    1.4289   -2.4750    0.0000 C   0  0  0  0  0  0  0  0  0  0  0  0
    2.1434   -2.8875    0.0000 C   0  0  0  0  0  0  0  0  0  0  0  0
    2.1434   -3.7125    0.0000 C   0  0  0  0  0  0  0  0  0  0  0  0
    1.4289   -4.1250    0.0000 C   0  0  0  0  0  0  0  0  0  0  0  0
    0.7145   -3.7125    0.0000 C   0  0  0  0  0  0  0  0  0  0  0  0
    0.7145   -2.8875    0.0000 C   0  0  0  0  0  0  0  0  0  0  0  0
    0.0000   -2.4750    0.0000 N   0  0  0  0  0  0  0  0  0  0  0  0
   -0.7145   -2.8875    0.0000 C   0  0  0  0  0  0  0  0  0  0  0  0
   -0.7145   -3.7125    0.0000 O   0  0  0  0  0  0  0  0  0  0  0  0
   -1.4289   -2.4750    0.0000 C   0  0  0  0  0  0  0  0  0  0  0  0
   -2.1434   -2.8875    0.0000 C   0  0  0  0  0  0  0  0  0  0  0  0
   -2.8579   -2.4750    0.0000 C   0  0  0  0  0  0  0  0  0  0  0  0
   -2.8579   -1.6500    0.0000 C   0  0  0  0  0  0  0  0  0  0  0  0
   -3.5724   -1.2375    0.0000 F   0  0  0  0  0  0  0  0  0  0  0  0
   -2.1434   -1.2375    0.0000 C   0  0  0  0  0  0  0  0  0  0  0  0
   -1.4289   -1.6500    0.0000 C   0  0  0  0  0  0  0  0  0  0  0  0
  1  2  1  0  0  0  0
  2  3  1  0  0  0  0
  2  4  1  0  0  0  0
  2  5  1  0  0  0  0
  5  6  1  0  0  0  0
  6  7  2  0  0  0  0
  6  8  1  0  0  0  0
  8  9  2  0  0  0  0
  9 10  1  0  0  0  0
 10 11  2  0  0  0  0
 11 12  1  0  0  0  0
 12 13  2  0  0  0  0
 13 14  1  0  0  0  0
  9 14  1  0  0  0  0
 14 15  2  0  0  0  0
 15 16  1  0  0  0  0
 16 17  2  0  0  0  0
  8 17  1  0  0  0  0
 15 18  1  0  0  0  0
 18 19  2  0  0  0  0
 19 20  1  0  0  0  0
 20 21  2  0  0  0  0
 21 22  1  0  0  0  0
 22 23  2  0  0  0  0
 18 23  1  0  0  0  0
 23 24  1  0  0  0  0
 24 25  1  0  0  0  0
 25 26  2  0  0  0  0
 25 27  1  0  0  0  0
 27 28  2  0  0  0  0
 28 29  1  0  0  0  0
 29 30  2  0  0  0  0
 30 31  1  0  0  0  0
 30 32  1  0  0  0  0
 32 33  2  0  0  0  0
 27 33  1  0  0  0  0
M  END
> <ID>
CPD_5342

$$$$
CPD_5347
  Mrv1822 09091914012D          

 26 29  0  0  0  0            999 V2000
    4.7812    5.4896    0.0000 C   0  0  0  0  0  0  0  0  0  0  0  0
    4.7812    4.6646    0.0000 C   0  0  0  0  0  0  0  0  0  0  0  0
    3.9562    4.6646    0.0000 C   0  0  0  0  0  0  0  0  0  0  0  0
    5.6062    4.6646    0.0000 C   0  0  0  0  0  0  0  0  0  0  0  0
    4.7812    3.8396    0.0000 N   0  0  0  0  0  0  0  0  0  0  0  0
    5.4957    3.4271    0.0000 C   0  0  0  0  0  0  0  0  0  0  0  0
    6.2102    3.8396    0.0000 O   0  0  0  0  0  0  0  0  0  0  0  0
    5.4957    2.6021    0.0000 C   0  0  0  0  0  0  0  0  0  0  0  0
    6.2102    2.1896    0.0000 C   0  0  0  0  0  0  0  0  0  0  0  0
    6.9246    2.6021    0.0000 C   0  0  0  0  0  0  0  0  0  0  0  0
    7.6391    2.1896    0.0000 C   0  0  0  0  0  0  0  0  0  0  0  0
    7.6391    1.3646    0.0000 C   0  0  0  0  0  0  0  0  0  0  0  0
    6.9246    0.9521    0.0000 C   0  0  0  0  0  0  0  0  0  0  0  0
    6.2102    1.3646    0.0000 C   0  0  0  0  0  0  0  0  0  0  0  0
    5.4957    0.9521    0.0000 C   0  0  0  0  0  0  0  0  0  0  0  0
    4.7812    1.3646    0.0000 C   0  0  0  0  0  0  0  0  0  0  0  0
    4.7812    2.1896    0.0000 C   0  0  0  0  0  0  0  0  0  0  0  0
    5.4957    0.1271    0.0000 C   0  0  0  0  0  0  0  0  0  0  0  0
    6.2102   -0.2854    0.0000 C   0  0  0  0  0  0  0  0  0  0  0  0
    6.2102   -1.1104    0.0000 C   0  0  0  0  0  0  0  0  0  0  0  0
    5.4957   -1.5229    0.0000 C   0  0  0  0  0  0  0  0  0  0  0  0
    4.7812   -1.1104    0.0000 N   0  0  0  0  0  0  0  0  0  0  0  0
    3.9966   -1.3654    0.0000 C   0  0  0  0  0  0  0  0  0  0  0  0
    3.5117   -0.6979    0.0000 C   0  0  0  0  0  0  0  0  0  0  0  0
    3.9966   -0.0305    0.0000 N   0  0  0  0  0  0  0  0  0  0  0  0
    4.7812   -0.2854    0.0000 C   0  0  0  0  0  0  0  0  0  0  0  0
  1  2  1  0  0  0  0
  2  3  1  0  0  0  0
  2  4  1  0  0  0  0
  2  5  1  0  0  0  0
  5  6  1  0  0  0  0
  6  7  2  0  0  0  0
  6  8  1  0  0  0  0
  8  9  2  0  0  0  0
  9 10  1  0  0  0  0
 10 11  2  0  0  0  0
 11 12  1  0  0  0  0
 12 13  2  0  0  0  0
 13 14  1  0  0  0  0
  9 14  1  0  0  0  0
 14 15  2  0  0  0  0
 15 16  1  0  0  0  0
 16 17  2  0  0  0  0
  8 17  1  0  0  0  0
 15 18  1  0  0  0  0
 18 19  2  0  0  0  0
 19 20  1  0  0  0  0
 20 21  2  0  0  0  0
 21 22  1  0  0  0  0
 22 23  1  0  0  0  0
 23 24  2  0  0  0  0
 24 25  1  0  0  0  0
 25 26  2  0  0  0  0
 18 26  1  0  0  0  0
 22 26  1  0  0  0  0
M  END
> <ID>
CPD_5347

$$$$
CPD_5352
  Mrv1822 09091914012D          

 27 30  0  0  0  0            999 V2000
    4.9279   -4.6646    0.0000 C   0  0  0  0  0  0  0  0  0  0  0  0
    4.9279   -3.8396    0.0000 C   0  0  0  0  0  0  0  0  0  0  0  0
    5.7529   -3.8396    0.0000 C   0  0  0  0  0  0  0  0  0  0  0  0
    4.1029   -3.8396    0.0000 C   0  0  0  0  0  0  0  0  0  0  0  0
    4.9279   -3.0146    0.0000 N   0  0  0  0  0  0  0  0  0  0  0  0
    4.2135   -2.6021    0.0000 C   0  0  0  0  0  0  0  0  0  0  0  0
    3.4990   -3.0146    0.0000 O   0  0  0  0  0  0  0  0  0  0  0  0
    4.2135   -1.7771    0.0000 C   0  0  0  0  0  0  0  0  0  0  0  0
    3.4990   -1.3646    0.0000 C   0  0  0  0  0  0  0  0  0  0  0  0
    2.7845   -1.7771    0.0000 C   0  0  0  0  0  0  0  0  0  0  0  0
    2.0701   -1.3646    0.0000 C   0  0  0  0  0  0  0  0  0  0  0  0
    2.0701   -0.5396    0.0000 C   0  0  0  0  0  0  0  0  0  0  0  0
    2.7845   -0.1271    0.0000 C   0  0  0  0  0  0  0  0  0  0  0  0
    3.4990   -0.5396    0.0000 C   0  0  0  0  0  0  0  0  0  0  0  0
    4.2135   -0.1271    0.0000 C   0  0  0  0  0  0  0  0  0  0  0  0
    4.9279   -0.5396    0.0000 C   0  0  0  0  0  0  0  0  0  0  0  0
    4.9279   -1.3646    0.0000 C   0  0  0  0  0  0  0  0  0  0  0  0
    4.2135    0.6979    0.0000 C   0  0  0  0  0  0  0  0  0  0  0  0
    3.4990    1.1104    0.0000 C   0  0  0  0  0  0  0  0  0  0  0  0
    2.7144    0.8555    0.0000 C   0  0  0  0  0  0  0  0  0  0  0  0
    2.2295    1.5229    0.0000 C   0  0  0  0  0  0  0  0  0  0  0  0
    1.4045    1.5229    0.0000 O   0  0  0  0  0  0  0  0  0  0  0  0
    2.7144    2.1904    0.0000 N   0  0  0  0  0  0  0  0  0  0  0  0
    3.4990    1.9354    0.0000 C   0  0  0  0  0  0  0  0  0  0  0  0
    4.2135    2.3479    0.0000 N   0  0  0  0  0  0  0  0  0  0  0  0
    4.9279    1.9354    0.0000 C   0  0  0  0  0  0  0  0  0  0  0  0
    4.9279    1.1104    0.0000 C   0  0  0  0  0  0  0  0  0  0  0  0
  1  2  1  0  0  0  0
  2  3  1  0  0  0  0
  2  4  1  0  0  0  0
  2  5  1  0  0  0  0
  5  6  1  0  0  0  0
  6  7  2  0  0  0  0
  6  8  1  0  0  0  0
  8  9  2  0  0  0  0
  9 10  1  0  0  0  0
 10 11  2  0  0  0  0
 11 12  1  0  0  0  0
 12 13  2  0  0  0  0
 13 14  1  0  0  0  0
  9 14  1  0  0  0  0
 14 15  2  0  0  0  0
 15 16  1  0  0  0  0
 16 17  2  0  0  0  0
  8 17  1  0  0  0  0
 15 18  1  0  0  0  0
 18 19  2  0  0  0  0
 19 20  1  0  0  0  0
 20 21  1  0  0  0  0
 21 22  2  0  0  0  0
 21 23  1  0  0  0  0
 23 24  1  0  0  0  0
 19 24  1  0  0  0  0
 24 25  2  0  0  0  0
 25 26  1  0  0  0  0
 26 27  2  0  0  0  0
 18 27  1  0  0  0  0
M  END
> <ID>
CPD_5352

$$$$
CPD_5357
  Mrv1822 09091914012D          

 24 27  0  0  0  0            999 V2000
   -6.8545    0.2941    0.0000 C   0  0  0  0  0  0  0  0  0  0  0  0
   -6.1401    0.7066    0.0000 C   0  0  0  0  0  0  0  0  0  0  0  0
   -5.4256    0.2941    0.0000 O   0  0  0  0  0  0  0  0  0  0  0  0
   -4.7111    0.7066    0.0000 C   0  0  0  0  0  0  0  0  0  0  0  0
   -4.7111    1.5316    0.0000 O   0  0  0  0  0  0  0  0  0  0  0  0
   -3.9966    0.2941    0.0000 C   0  0  0  0  0  0  0  0  0  0  0  0
   -3.9104   -0.5264    0.0000 C   0  0  0  0  0  0  0  0  0  0  0  0
   -4.5235   -1.0784    0.0000 N   0  0  0  0  0  0  0  0  0  0  0  0
   -3.1034   -0.6979    0.0000 C   0  0  0  0  0  0  0  0  0  0  0  0
   -2.6909    0.0165    0.0000 C   0  0  0  0  0  0  0  0  0  0  0  0
   -3.2430    0.6296    0.0000 O   0  0  0  0  0  0  0  0  0  0  0  0
   -1.8659    0.0165    0.0000 C   0  0  0  0  0  0  0  0  0  0  0  0
   -1.4534   -0.6979    0.0000 C   0  0  0  0  0  0  0  0  0  0  0  0
   -1.8659   -1.4124    0.0000 C   0  0  0  0  0  0  0  0  0  0  0  0
   -2.6909   -1.4124    0.0000 C   0  0  0  0  0  0  0  0  0  0  0  0
   -0.6284   -0.6979    0.0000 C   0  0  0  0  0  0  0  0  0  0  0  0
   -0.1435   -1.3654    0.0000 N   0  0  0  0  0  0  0  0  0  0  0  0
    0.6411   -1.1104    0.0000 C   0  0  0  0  0  0  0  0  0  0  0  0
    0.6411   -0.2854    0.0000 C   0  0  0  0  0  0  0  0  0  0  0  0
   -0.1435   -0.0305    0.0000 S   0  0  0  0  0  0  0  0  0  0  0  0
    1.3556    0.1271    0.0000 C   0  0  0  0  0  0  0  0  0  0  0  0
    2.0701   -0.2854    0.0000 C   0  0  0  0  0  0  0  0  0  0  0  0
    2.0701   -1.1104    0.0000 C   0  0  0  0  0  0  0  0  0  0  0  0
    1.3556   -1.5229    0.0000 C   0  0  0  0  0  0  0  0  0  0  0  0
  1  2  1  0  0  0  0
  2  3  1  0  0  0  0
  3  4  1  0  0  0  0
  4  5  2  0  0  0  0
  4  6  1  0  0  0  0
  6  7  2  0  0  0  0
  7  8  1  0  0  0  0
  7  9  1  0  0  0  0
  9 10  2  0  0  0  0
 10 11  1  0  0  0  0
  6 11  1  0  0  0  0
 10 12  1  0  0  0  0
 12 13  2  0  0  0  0
 13 14  1  0  0  0  0
 14 15  2  0  0  0  0
  9 15  1  0  0  0  0
 13 16  1  0  0  0  0
 16 17  2  0  0  0  0
 17 18  1  0  0  0  0
 18 19  2  0  0  0  0
 19 20  1  0  0  0  0
 16 20  1  0  0  0  0
 19 21  1  0  0  0  0
 21 22  2  0  0  0  0
 22 23  1  0  0  0  0
 23 24  2  0  0  0  0
 18 24  1  0  0  0  0
M  END
> <ID>
CPD_5357

$$$$
CPD_5362
  Mrv1822 09091914012D          

 29 32  0  0  0  0            999 V2000
   -5.1735   -3.4914    0.0000 C   0  0  0  0  0  0  0  0  0  0  0  0
   -4.7610   -2.7770    0.0000 C   0  0  0  0  0  0  0  0  0  0  0  0
   -3.9360   -2.7770    0.0000 O   0  0  0  0  0  0  0  0  0  0  0  0
   -3.5235   -2.0625    0.0000 C   0  0  0  0  0  0  0  0  0  0  0  0
   -3.9360   -1.3480    0.0000 O   0  0  0  0  0  0  0  0  0  0  0  0
   -2.6985   -2.0625    0.0000 C   0  0  0  0  0  0  0  0  0  0  0  0
   -2.2136   -2.7299    0.0000 C   0  0  0  0  0  0  0  0  0  0  0  0
   -2.4685   -3.5146    0.0000 N   0  0  0  0  0  0  0  0  0  0  0  0
   -1.4289   -2.4750    0.0000 C   0  0  0  0  0  0  0  0  0  0  0  0
   -1.4289   -1.6500    0.0000 C   0  0  0  0  0  0  0  0  0  0  0  0
   -2.2136   -1.3951    0.0000 O   0  0  0  0  0  0  0  0  0  0  0  0
   -0.7145   -1.2375    0.0000 C   0  0  0  0  0  0  0  0  0  0  0  0
    0.0000   -1.6500    0.0000 C   0  0  0  0  0  0  0  0  0  0  0  0
    0.0000   -2.4750    0.0000 C   0  0  0  0  0  0  0  0  0  0  0  0
   -0.7145   -2.8875    0.0000 C   0  0  0  0  0  0  0  0  0  0  0  0
    0.7145   -1.2375    0.0000 C   0  0  0  0  0  0  0  0  0  0  0  0
    0.7145   -0.4125    0.0000 C   0  0  0  0  0  0  0  0  0  0  0  0
    0.0000    0.0000    0.0000 O   0  0  0  0  0  0  0  0  0  0  0  0
    1.4289    0.0000    0.0000 C   0  0  0  0  0  0  0  0  0  0  0  0
    2.1434   -0.4125    0.0000 C   0  0  0  0  0  0  0  0  0  0  0  0
    2.8579    0.0000    0.0000 O   0  0  0  0  0  0  0  0  0  0  0  0
    3.5724   -0.4125    0.0000 C   0  0  0  0  0  0  0  0  0  0  0  0
    4.2868   -0.0000    0.0000 O   0  0  0  0  0  0  0  0  0  0  0  0
    3.5724   -1.2375    0.0000 C   0  0  0  0  0  0  0  0  0  0  0  0
    2.8579   -1.6500    0.0000 C   0  0  0  0  0  0  0  0  0  0  0  0
    2.8579   -2.4750    0.0000 C   0  0  0  0  0  0  0  0  0  0  0  0
    2.1434   -2.8875    0.0000 C   0  0  0  0  0  0  0  0  0  0  0  0
    2.1434   -1.2375    0.0000 C   0  0  0  0  0  0  0  0  0  0  0  0
    1.4289   -1.6500    0.0000 C   0  0  0  0  0  0  0  0  0  0  0  0
  1  2  1  0  0  0  0
  2  3  1  0  0  0  0
  3  4  1  0  0  0  0
  4  5  2  0  0  0  0
  4  6  1  0  0  0  0
  6  7  2  0  0  0  0
  7  8  1  0  0  0  0
  7  9  1  0  0  0  0
  9 10  2  0  0  0  0
 10 11  1  0  0  0  0
  6 11  1  0  0  0  0
 10 12  1  0  0  0  0
 12 13  2  0  0  0  0
 13 14  1  0  0  0  0
 14 15  2  0  0  0  0
  9 15  1  0  0  0  0
 13 16  1  0  0  0  0
 16 17  2  0  0  0  0
 17 18  1  0  0  0  0
 17 19  1  0  0  0  0
 19 20  2  0  0  0  0
 20 21  1  0  0  0  0
 21 22  1  0  0  0  0
 22 23  2  0  0  0  0
 22 24  1  0  0  0  0
 24 25  2  0  0  0  0
 25 26  1  0  0  0  0
 26 27  1  0  0  0  0
 25 28  1  0  0  0  0
 20 28  1  0  0  0  0
 28 29  2  0  0  0  0
 16 29  1  0  0  0  0
M  END
> <ID>
CPD_5362

$$$$
CPD_5367
  Mrv1822 09091914012D          

 25 27  0  0  0  0            999 V2000
   -3.1034   -2.1269    0.0000 C   0  0  0  0  0  0  0  0  0  0  0  0
   -2.6909   -1.4124    0.0000 C   0  0  0  0  0  0  0  0  0  0  0  0
   -1.8659   -1.4124    0.0000 O   0  0  0  0  0  0  0  0  0  0  0  0
   -1.4534   -0.6979    0.0000 C   0  0  0  0  0  0  0  0  0  0  0  0
   -1.8659    0.0165    0.0000 O   0  0  0  0  0  0  0  0  0  0  0  0
   -0.6284   -0.6979    0.0000 C   0  0  0  0  0  0  0  0  0  0  0  0
   -0.1435   -1.3654    0.0000 C   0  0  0  0  0  0  0  0  0  0  0  0
   -0.3984   -2.1500    0.0000 N   0  0  0  0  0  0  0  0  0  0  0  0
    0.6411   -1.1104    0.0000 C   0  0  0  0  0  0  0  0  0  0  0  0
    0.6411   -0.2854    0.0000 C   0  0  0  0  0  0  0  0  0  0  0  0
   -0.1435   -0.0305    0.0000 O   0  0  0  0  0  0  0  0  0  0  0  0
    1.3556    0.1271    0.0000 C   0  0  0  0  0  0  0  0  0  0  0  0
    2.0701   -0.2854    0.0000 C   0  0  0  0  0  0  0  0  0  0  0  0
    2.0701   -1.1104    0.0000 C   0  0  0  0  0  0  0  0  0  0  0  0
    1.3556   -1.5229    0.0000 C   0  0  0  0  0  0  0  0  0  0  0  0
    2.7845    0.1271    0.0000 C   0  0  0  0  0  0  0  0  0  0  0  0
    2.7845    0.9521    0.0000 C   0  0  0  0  0  0  0  0  0  0  0  0
    2.0701    1.3646    0.0000 N   0  0  0  0  0  0  0  0  0  0  0  0
    3.4990    1.3646    0.0000 C   0  0  0  0  0  0  0  0  0  0  0  0
    4.2135    0.9521    0.0000 C   0  0  0  0  0  0  0  0  0  0  0  0
    4.2135    0.1271    0.0000 C   0  0  0  0  0  0  0  0  0  0  0  0
    4.9279   -0.2854    0.0000 S   0  0  0  0  0  0  0  0  0  0  0  0
    5.6424    0.1271    0.0000 C   0  0  0  0  0  0  0  0  0  0  0  0
    6.3569    0.5396    0.0000 N   0  0  0  0  0  0  0  0  0  0  0  0
    3.4990   -0.2854    0.0000 C   0  0  0  0  0  0  0  0  0  0  0  0
  1  2  1  0  0  0  0
  2  3  1  0  0  0  0
  3  4  1  0  0  0  0
  4  5  2  0  0  0  0
  4  6  1  0  0  0  0
  6  7  2  0  0  0  0
  7  8  1  0  0  0  0
  7  9  1  0  0  0  0
  9 10  2  0  0  0  0
 10 11  1  0  0  0  0
  6 11  1  0  0  0  0
 10 12  1  0  0  0  0
 12 13  2  0  0  0  0
 13 14  1  0  0  0  0
 14 15  2  0  0  0  0
  9 15  1  0  0  0  0
 13 16  1  0  0  0  0
 16 17  2  0  0  0  0
 17 18  1  0  0  0  0
 17 19  1  0  0  0  0
 19 20  2  0  0  0  0
 20 21  1  0  0  0  0
 21 22  1  0  0  0  0
 22 23  1  0  0  0  0
 23 24  3  0  0  0  0
 21 25  2  0  0  0  0
 16 25  1  0  0  0  0
M  END
> <ID>
CPD_5367

$$$$
CPD_5372
  Mrv1822 09091914012D          

 20 22  0  0  0  0            999 V2000
    0.3553   -3.8295    0.0000 C   0  0  0  0  0  0  0  0  0  0  0  0
    0.5269   -3.0225    0.0000 C   0  0  0  0  0  0  0  0  0  0  0  0
    1.3115   -2.7676    0.0000 C   0  0  0  0  0  0  0  0  0  0  0  0
   -0.0862   -2.4705    0.0000 N   0  0  0  0  0  0  0  0  0  0  0  0
   -0.8932   -2.6420    0.0000 N   0  0  0  0  0  0  0  0  0  0  0  0
   -1.3057   -1.9275    0.0000 C   0  0  0  0  0  0  0  0  0  0  0  0
   -0.7537   -1.3144    0.0000 C   0  0  0  0  0  0  0  0  0  0  0  0
    0.0000   -1.6500    0.0000 C   0  0  0  0  0  0  0  0  0  0  0  0
    0.7145   -1.2375    0.0000 C   0  0  0  0  0  0  0  0  0  0  0  0
    0.7145   -0.4125    0.0000 C   0  0  0  0  0  0  0  0  0  0  0  0
    1.4289    0.0000    0.0000 N   0  0  0  0  0  0  0  0  0  0  0  0
    2.1434   -0.4125    0.0000 C   0  0  0  0  0  0  0  0  0  0  0  0
    2.8579    0.0000    0.0000 C   0  0  0  0  0  0  0  0  0  0  0  0
    3.5724   -0.4125    0.0000 C   0  0  0  0  0  0  0  0  0  0  0  0
    4.2868   -0.0000    0.0000 O   0  0  0  0  0  0  0  0  0  0  0  0
    3.5724   -1.2375    0.0000 N   0  0  0  0  0  0  0  0  0  0  0  0
    2.8579   -1.6500    0.0000 C   0  0  0  0  0  0  0  0  0  0  0  0
    2.8579   -2.4750    0.0000 O   0  0  0  0  0  0  0  0  0  0  0  0
    2.1434   -1.2375    0.0000 C   0  0  0  0  0  0  0  0  0  0  0  0
    1.4289   -1.6500    0.0000 C   0  0  0  0  0  0  0  0  0  0  0  0
  1  2  1  0  0  0  0
  2  3  1  0  0  0  0
  2  4  1  0  0  0  0
  4  5  1  0  0  0  0
  5  6  2  0  0  0  0
  6  7  1  0  0  0  0
  7  8  2  0  0  0  0
  4  8  1  0  0  0  0
  8  9  1  0  0  0  0
  9 10  2  0  0  0  0
 10 11  1  0  0  0  0
 11 12  2  0  0  0  0
 12 13  1  0  0  0  0
 13 14  1  0  0  0  0
 14 15  2  0  0  0  0
 14 16  1  0  0  0  0
 16 17  1  0  0  0  0
 17 18  2  0  0  0  0
 17 19  1  0  0  0  0
 12 19  1  0  0  0  0
 19 20  2  0  0  0  0
  9 20  1  0  0  0  0
M  END
> <ID>
CPD_5372

$$$$
CPD_5377
  Mrv1822 09091914012D          

 37 41  0  0  0  0            999 V2000
    0.7145   -8.6625    0.0000 C   0  0  0  0  0  0  0  0  0  0  0  0
    0.7145   -7.8375    0.0000 N   0  0  0  0  0  0  0  0  0  0  0  0
    1.4289   -7.4250    0.0000 C   0  0  0  0  0  0  0  0  0  0  0  0
    0.0000   -7.4250    0.0000 C   0  0  0  0  0  0  0  0  0  0  0  0
   -0.7145   -7.8375    0.0000 C   0  0  0  0  0  0  0  0  0  0  0  0
   -1.4289   -7.4250    0.0000 C   0  0  0  0  0  0  0  0  0  0  0  0
   -1.4289   -6.6000    0.0000 C   0  0  0  0  0  0  0  0  0  0  0  0
   -0.7145   -6.1875    0.0000 C   0  0  0  0  0  0  0  0  0  0  0  0
    0.0000   -6.6000    0.0000 N   0  0  0  0  0  0  0  0  0  0  0  0
   -0.7145   -5.3625    0.0000 C   0  0  0  0  0  0  0  0  0  0  0  0
   -1.4289   -4.9500    0.0000 C   0  0  0  0  0  0  0  0  0  0  0  0
   -1.4289   -4.1250    0.0000 C   0  0  0  0  0  0  0  0  0  0  0  0
   -0.7145   -3.7125    0.0000 C   0  0  0  0  0  0  0  0  0  0  0  0
    0.0000   -4.1250    0.0000 C   0  0  0  0  0  0  0  0  0  0  0  0
    0.0000   -4.9500    0.0000 C   0  0  0  0  0  0  0  0  0  0  0  0
   -0.7145   -2.8875    0.0000 C   0  0  0  0  0  0  0  0  0  0  0  0
   -1.4289   -2.4750    0.0000 C   0  0  0  0  0  0  0  0  0  0  0  0
   -1.4289   -1.6500    0.0000 C   0  0  0  0  0  0  0  0  0  0  0  0
   -0.7145   -1.2375    0.0000 N   0  0  0  0  0  0  0  0  0  0  0  0
    0.0000   -1.6500    0.0000 C   0  0  0  0  0  0  0  0  0  0  0  0
    0.0000   -2.4750    0.0000 N   0  0  0  0  0  0  0  0  0  0  0  0
    0.7145   -1.2375    0.0000 C   0  0  0  0  0  0  0  0  0  0  0  0
    0.7145   -0.4125    0.0000 C   0  0  0  0  0  0  0  0  0  0  0  0
    1.4289    0.0000    0.0000 N   0  0  0  0  0  0  0  0  0  0  0  0
    2.1434   -0.4125    0.0000 C   0  0  0  0  0  0  0  0  0  0  0  0
    2.8579    0.0000    0.0000 C   0  0  0  0  0  0  0  0  0  0  0  0
    3.5724   -0.4125    0.0000 C   0  0  0  0  0  0  0  0  0  0  0  0
    4.2868   -0.0000    0.0000 O   0  0  0  0  0  0  0  0  0  0  0  0
    3.5724   -1.2375    0.0000 N   0  0  0  0  0  0  0  0  0  0  0  0
    2.8579   -1.6500    0.0000 C   0  0  0  0  0  0  0  0  0  0  0  0
    2.8579   -2.4750    0.0000 O   0  0  0  0  0  0  0  0  0  0  0  0
    2.1434   -1.2375    0.0000 C   0  0  0  0  0  0  0  0  0  0  0  0
    1.4289   -1.6500    0.0000 C   0  0  0  0  0  0  0  0  0  0  0  0
   -2.1434   -7.8375    0.0000 C   0  0  0  0  0  0  0  0  0  0  0  0
   -2.8579   -8.2500    0.0000 F   0  0  0  0  0  0  0  0  0  0  0  0
   -2.5559   -7.1230    0.0000 F   0  0  0  0  0  0  0  0  0  0  0  0
   -1.7309   -8.5520    0.0000 F   0  0  0  0  0  0  0  0  0  0  0  0
  1  2  1  0  0  0  0
  2  3  1  0  0  0  0
  2  4  1  0  0  0  0
  4  5  2  0  0  0  0
  5  6  1  0  0  0  0
  6  7  2  0  0  0  0
  7  8  1  0  0  0  0
  8  9  2  0  0  0  0
  4  9  1  0  0  0  0
  8 10  1  0  0  0  0
 10 11  2  0  0  0  0
 11 12  1  0  0  0  0
 12 13  2  0  0  0  0
 13 14  1  0  0  0  0
 14 15  2  0  0  0  0
 10 15  1  0  0  0  0
 13 16  1  0  0  0  0
 16 17  2  0  0  0  0
 17 18  1  0  0  0  0
 18 19  2  0  0  0  0
 19 20  1  0  0  0  0
 20 21  2  0  0  0  0
 16 21  1  0  0  0  0
 20 22  1  0  0  0  0
 22 23  2  0  0  0  0
 23 24  1  0  0  0  0
 24 25  2  0  0  0  0
 25 26  1  0  0  0  0
 26 27  1  0  0  0  0
 27 28  2  0  0  0  0
 27 29  1  0  0  0  0
 29 30  1  0  0  0  0
 30 31  2  0  0  0  0
 30 32  1  0  0  0  0
 25 32  1  0  0  0  0
 32 33  2  0  0  0  0
 22 33  1  0  0  0  0
  6 34  1  0  0  0  0
 34 35  1  0  0  0  0
 34 36  1  0  0  0  0
 34 37  1  0  0  0  0
M  END
> <ID>
CPD_5377

$$$$
CPD_5382
  Mrv1822 09091914012D          

 20 22  0  0  0  0            999 V2000
   -1.4289   -0.0000    0.0000 C   0  0  0  0  0  0  0  0  0  0  0  0
   -0.7145   -0.4125    0.0000 O   0  0  0  0  0  0  0  0  0  0  0  0
   -0.7145   -1.2375    0.0000 C   0  0  0  0  0  0  0  0  0  0  0  0
    0.0000   -1.6500    0.0000 C   0  0  0  0  0  0  0  0  0  0  0  0
    0.0000   -2.4750    0.0000 C   0  0  0  0  0  0  0  0  0  0  0  0
   -0.7145   -2.8875    0.0000 N   0  0  0  0  0  0  0  0  0  0  0  0
   -1.4289   -2.4750    0.0000 C   0  0  0  0  0  0  0  0  0  0  0  0
   -1.4289   -1.6500    0.0000 N   0  0  0  0  0  0  0  0  0  0  0  0
    0.7145   -1.2375    0.0000 C   0  0  0  0  0  0  0  0  0  0  0  0
    0.7145   -0.4125    0.0000 C   0  0  0  0  0  0  0  0  0  0  0  0
    1.4289    0.0000    0.0000 N   0  0  0  0  0  0  0  0  0  0  0  0
    2.1434   -0.4125    0.0000 C   0  0  0  0  0  0  0  0  0  0  0  0
    2.8579    0.0000    0.0000 C   0  0  0  0  0  0  0  0  0  0  0  0
    3.5724   -0.4125    0.0000 C   0  0  0  0  0  0  0  0  0  0  0  0
    4.2868   -0.0000    0.0000 O   0  0  0  0  0  0  0  0  0  0  0  0
    3.5724   -1.2375    0.0000 N   0  0  0  0  0  0  0  0  0  0  0  0
    2.8579   -1.6500    0.0000 C   0  0  0  0  0  0  0  0  0  0  0  0
    2.8579   -2.4750    0.0000 O   0  0  0  0  0  0  0  0  0  0  0  0
    2.1434   -1.2375    0.0000 C   0  0  0  0  0  0  0  0  0  0  0  0
    1.4289   -1.6500    0.0000 C   0  0  0  0  0  0  0  0  0  0  0  0
  1  2  1  0  0  0  0
  2  3  1  0  0  0  0
  3  4  2  0  0  0  0
  4  5  1  0  0  0  0
  5  6  2  0  0  0  0
  6  7  1  0  0  0  0
  7  8  2  0  0  0  0
  3  8  1  0  0  0  0
  4  9  1  0  0  0  0
  9 10  2  0  0  0  0
 10 11  1  0  0  0  0
 11 12  2  0  0  0  0
 12 13  1  0  0  0  0
 13 14  1  0  0  0  0
 14 15  2  0  0  0  0
 14 16  1  0  0  0  0
 16 17  1  0  0  0  0
 17 18  2  0  0  0  0
 17 19  1  0  0  0  0
 12 19  1  0  0  0  0
 19 20  2  0  0  0  0
  9 20  1  0  0  0  0
M  END
> <ID>
CPD_5382

$$$$
CPD_5387
  Mrv1822 09091914012D          

 26 29  0  0  0  0            999 V2000
   -1.4534   -2.1269    0.0000 C   0  0  0  0  0  0  0  0  0  0  0  0
   -1.8659   -1.4124    0.0000 O   0  0  0  0  0  0  0  0  0  0  0  0
   -1.4534   -0.6979    0.0000 C   0  0  0  0  0  0  0  0  0  0  0  0
   -1.8659    0.0165    0.0000 O   0  0  0  0  0  0  0  0  0  0  0  0
   -0.6284   -0.6979    0.0000 C   0  0  0  0  0  0  0  0  0  0  0  0
   -0.1435   -1.3654    0.0000 C   0  0  0  0  0  0  0  0  0  0  0  0
    0.6411   -1.1104    0.0000 C   0  0  0  0  0  0  0  0  0  0  0  0
    0.6411   -0.2854    0.0000 C   0  0  0  0  0  0  0  0  0  0  0  0
   -0.1435   -0.0305    0.0000 N   0  0  0  0  0  0  0  0  0  0  0  0
    1.3556    0.1271    0.0000 C   0  0  0  0  0  0  0  0  0  0  0  0
    2.0701   -0.2854    0.0000 C   0  0  0  0  0  0  0  0  0  0  0  0
    2.0701   -1.1104    0.0000 C   0  0  0  0  0  0  0  0  0  0  0  0
    1.3556   -1.5229    0.0000 N   0  0  0  0  0  0  0  0  0  0  0  0
    2.7845    0.1271    0.0000 C   0  0  0  0  0  0  0  0  0  0  0  0
    2.7845    0.9521    0.0000 C   0  0  0  0  0  0  0  0  0  0  0  0
    3.4990    1.3646    0.0000 C   0  0  0  0  0  0  0  0  0  0  0  0
    4.2135    0.9521    0.0000 C   0  0  0  0  0  0  0  0  0  0  0  0
    4.2135    0.1271    0.0000 N   0  0  0  0  0  0  0  0  0  0  0  0
    3.4990   -0.2854    0.0000 C   0  0  0  0  0  0  0  0  0  0  0  0
    3.4990   -1.1104    0.0000 O   0  0  0  0  0  0  0  0  0  0  0  0
    4.2135   -1.5229    0.0000 C   0  0  0  0  0  0  0  0  0  0  0  0
    4.9279   -1.1104    0.0000 C   0  0  0  0  0  0  0  0  0  0  0  0
    5.6424   -1.5229    0.0000 C   0  0  0  0  0  0  0  0  0  0  0  0
    5.6424   -2.3479    0.0000 C   0  0  0  0  0  0  0  0  0  0  0  0
    4.9279   -2.7604    0.0000 C   0  0  0  0  0  0  0  0  0  0  0  0
    4.2135   -2.3479    0.0000 C   0  0  0  0  0  0  0  0  0  0  0  0
  1  2  1  0  0  0  0
  2  3  1  0  0  0  0
  3  4  2  0  0  0  0
  3  5  1  0  0  0  0
  5  6  2  0  0  0  0
  6  7  1  0  0  0  0
  7  8  2  0  0  0  0
  8  9  1  0  0  0  0
  5  9  1  0  0  0  0
  8 10  1  0  0  0  0
 10 11  2  0  0  0  0
 11 12  1  0  0  0  0
 12 13  2  0  0  0  0
  7 13  1  0  0  0  0
 11 14  1  0  0  0  0
 14 15  2  0  0  0  0
 15 16  1  0  0  0  0
 16 17  2  0  0  0  0
 17 18  1  0  0  0  0
 18 19  2  0  0  0  0
 14 19  1  0  0  0  0
 19 20  1  0  0  0  0
 20 21  1  0  0  0  0
 21 22  1  0  0  0  0
 22 23  1  0  0  0  0
 23 24  1  0  0  0  0
 24 25  1  0  0  0  0
 25 26  1  0  0  0  0
 21 26  1  0  0  0  0
M  END
> <ID>
CPD_5387

$$$$
CPD_5392
  Mrv1822 09091914012D          

 27 30  0  0  0  0            999 V2000
   -2.1434   -1.2375    0.0000 O   0  0  0  0  0  0  0  0  0  0  0  0
   -1.4289   -1.6500    0.0000 C   0  0  0  0  0  0  0  0  0  0  0  0
   -1.4289   -2.4750    0.0000 O   0  0  0  0  0  0  0  0  0  0  0  0
   -0.7145   -1.2375    0.0000 C   0  0  0  0  0  0  0  0  0  0  0  0
    0.0000   -1.6500    0.0000 C   0  0  0  0  0  0  0  0  0  0  0  0
    0.7145   -1.2375    0.0000 C   0  0  0  0  0  0  0  0  0  0  0  0
    0.7145   -0.4125    0.0000 C   0  0  0  0  0  0  0  0  0  0  0  0
    0.0000   -0.0000    0.0000 O   0  0  0  0  0  0  0  0  0  0  0  0
   -0.7145   -0.4125    0.0000 C   0  0  0  0  0  0  0  0  0  0  0  0
   -1.4289    0.0000    0.0000 O   0  0  0  0  0  0  0  0  0  0  0  0
    1.4289   -0.0000    0.0000 C   0  0  0  0  0  0  0  0  0  0  0  0
    2.1434   -0.4125    0.0000 C   0  0  0  0  0  0  0  0  0  0  0  0
    2.1434   -1.2375    0.0000 C   0  0  0  0  0  0  0  0  0  0  0  0
    1.4289   -1.6500    0.0000 C   0  0  0  0  0  0  0  0  0  0  0  0
    2.8579   -1.6500    0.0000 C   0  0  0  0  0  0  0  0  0  0  0  0
    3.5724   -1.2375    0.0000 C   0  0  0  0  0  0  0  0  0  0  0  0
    4.2868   -1.6500    0.0000 C   0  0  0  0  0  0  0  0  0  0  0  0
    4.2868   -2.4750    0.0000 C   0  0  0  0  0  0  0  0  0  0  0  0
    3.5724   -2.8875    0.0000 N   0  0  0  0  0  0  0  0  0  0  0  0
    2.8579   -2.4750    0.0000 C   0  0  0  0  0  0  0  0  0  0  0  0
    2.1434   -2.8875    0.0000 O   0  0  0  0  0  0  0  0  0  0  0  0
    2.1434   -3.7125    0.0000 C   0  0  0  0  0  0  0  0  0  0  0  0
    2.8579   -4.1250    0.0000 C   0  0  0  0  0  0  0  0  0  0  0  0
    2.8579   -4.9500    0.0000 C   0  0  0  0  0  0  0  0  0  0  0  0
    2.1434   -5.3625    0.0000 C   0  0  0  0  0  0  0  0  0  0  0  0
    1.4289   -4.9500    0.0000 C   0  0  0  0  0  0  0  0  0  0  0  0
    1.4289   -4.1250    0.0000 C   0  0  0  0  0  0  0  0  0  0  0  0
  1  2  1  0  0  0  0
  2  3  2  0  0  0  0
  2  4  1  0  0  0  0
  4  5  2  0  0  0  0
  5  6  1  0  0  0  0
  6  7  2  0  0  0  0
  7  8  1  0  0  0  0
  8  9  1  0  0  0  0
  4  9  1  0  0  0  0
  9 10  2  0  0  0  0
  7 11  1  0  0  0  0
 11 12  2  0  0  0  0
 12 13  1  0  0  0  0
 13 14  2  0  0  0  0
  6 14  1  0  0  0  0
 13 15  1  0  0  0  0
 15 16  2  0  0  0  0
 16 17  1  0  0  0  0
 17 18  2  0  0  0  0
 18 19  1  0  0  0  0
 19 20  2  0  0  0  0
 15 20  1  0  0  0  0
 20 21  1  0  0  0  0
 21 22  1  0  0  0  0
 22 23  1  0  0  0  0
 23 24  1  0  0  0  0
 24 25  1  0  0  0  0
 25 26  1  0  0  0  0
 26 27  1  0  0  0  0
 22 27  1  0  0  0  0
M  END
> <ID>
CPD_5392

$$$$
CPD_5397
  Mrv1822 09091914012D          

 26 28  0  0  0  0            999 V2000
    0.6288   -2.9346    0.0000 C   0  0  0  0  0  0  0  0  0  0  0  0
    0.8838   -2.1500    0.0000 C   0  0  0  0  0  0  0  0  0  0  0  0
    1.6684   -2.4049    0.0000 C   0  0  0  0  0  0  0  0  0  0  0  0
    0.0992   -1.8951    0.0000 C   0  0  0  0  0  0  0  0  0  0  0  0
    1.1387   -1.3654    0.0000 N   0  0  0  0  0  0  0  0  0  0  0  0
    0.6538   -0.6979    0.0000 N   0  0  0  0  0  0  0  0  0  0  0  0
    1.1387   -0.0305    0.0000 N   0  0  0  0  0  0  0  0  0  0  0  0
    1.9233   -0.2854    0.0000 C   0  0  0  0  0  0  0  0  0  0  0  0
    2.6378    0.1271    0.0000 C   0  0  0  0  0  0  0  0  0  0  0  0
    3.3523   -0.2854    0.0000 C   0  0  0  0  0  0  0  0  0  0  0  0
    3.3523   -1.1104    0.0000 C   0  0  0  0  0  0  0  0  0  0  0  0
    4.0668   -1.5229    0.0000 F   0  0  0  0  0  0  0  0  0  0  0  0
    2.6378   -1.5229    0.0000 C   0  0  0  0  0  0  0  0  0  0  0  0
    1.9233   -1.1104    0.0000 C   0  0  0  0  0  0  0  0  0  0  0  0
    4.0668    0.1271    0.0000 C   0  0  0  0  0  0  0  0  0  0  0  0
    4.7812   -0.2854    0.0000 C   0  0  0  0  0  0  0  0  0  0  0  0
    5.4957    0.1271    0.0000 C   0  0  0  0  0  0  0  0  0  0  0  0
    5.4957    0.9521    0.0000 C   0  0  0  0  0  0  0  0  0  0  0  0
    4.7812    1.3646    0.0000 C   0  0  0  0  0  0  0  0  0  0  0  0
    4.0668    0.9521    0.0000 C   0  0  0  0  0  0  0  0  0  0  0  0
    3.3523    1.3646    0.0000 C   0  0  0  0  0  0  0  0  0  0  0  0
    2.6378    1.7771    0.0000 F   0  0  0  0  0  0  0  0  0  0  0  0
    3.7648    2.0790    0.0000 F   0  0  0  0  0  0  0  0  0  0  0  0
    2.9398    0.6501    0.0000 F   0  0  0  0  0  0  0  0  0  0  0  0
    6.2102    1.3646    0.0000 C   0  0  0  0  0  0  0  0  0  0  0  0
    6.9246    1.7771    0.0000 N   0  0  0  0  0  0  0  0  0  0  0  0
  1  2  1  0  0  0  0
  2  3  1  0  0  0  0
  2  4  1  0  0  0  0
  2  5  1  0  0  0  0
  5  6  1  0  0  0  0
  6  7  2  0  0  0  0
  7  8  1  0  0  0  0
  8  9  2  0  0  0  0
  9 10  1  0  0  0  0
 10 11  2  0  0  0  0
 11 12  1  0  0  0  0
 11 13  1  0  0  0  0
 13 14  2  0  0  0  0
  5 14  1  0  0  0  0
  8 14  1  0  0  0  0
 10 15  1  0  0  0  0
 15 16  2  0  0  0  0
 16 17  1  0  0  0  0
 17 18  2  0  0  0  0
 18 19  1  0  0  0  0
 19 20  2  0  0  0  0
 15 20  1  0  0  0  0
 20 21  1  0  0  0  0
 21 22  1  0  0  0  0
 21 23  1  0  0  0  0
 21 24  1  0  0  0  0
 18 25  1  0  0  0  0
 25 26  3  0  0  0  0
M  END
> <ID>
CPD_5397

$$$$
CPD_5402
  Mrv1822 09091914012D          

 27 29  0  0  0  0            999 V2000
    2.0329   -4.1250    0.0000 C   0  0  0  0  0  0  0  0  0  0  0  0
    2.8579   -4.1250    0.0000 C   0  0  0  0  0  0  0  0  0  0  0  0
    3.2704   -3.4105    0.0000 C   0  0  0  0  0  0  0  0  0  0  0  0
    4.0954   -3.4105    0.0000 N   0  0  0  0  0  0  0  0  0  0  0  0
    4.5079   -4.1250    0.0000 C   0  0  0  0  0  0  0  0  0  0  0  0
    5.3329   -4.1250    0.0000 C   0  0  0  0  0  0  0  0  0  0  0  0
    5.7454   -4.8395    0.0000 C   0  0  0  0  0  0  0  0  0  0  0  0
    4.5079   -2.6961    0.0000 C   0  0  0  0  0  0  0  0  0  0  0  0
    4.0954   -1.9816    0.0000 C   0  0  0  0  0  0  0  0  0  0  0  0
    4.5079   -1.2671    0.0000 N   0  0  0  0  0  0  0  0  0  0  0  0
    5.3329   -1.2671    0.0000 C   0  0  0  0  0  0  0  0  0  0  0  0
    5.7454   -1.9816    0.0000 C   0  0  0  0  0  0  0  0  0  0  0  0
    5.3329   -2.6961    0.0000 N   0  0  0  0  0  0  0  0  0  0  0  0
    6.5704   -1.9816    0.0000 C   0  0  0  0  0  0  0  0  0  0  0  0
    6.9829   -1.2671    0.0000 C   0  0  0  0  0  0  0  0  0  0  0  0
    6.5704   -0.5526    0.0000 F   0  0  0  0  0  0  0  0  0  0  0  0
    7.8079   -1.2671    0.0000 C   0  0  0  0  0  0  0  0  0  0  0  0
    8.2204   -1.9816    0.0000 C   0  0  0  0  0  0  0  0  0  0  0  0
    9.0274   -2.1531    0.0000 N   0  0  0  0  0  0  0  0  0  0  0  0
    9.1136   -2.9736    0.0000 N   0  0  0  0  0  0  0  0  0  0  0  0
    8.3599   -3.3092    0.0000 N   0  0  0  0  0  0  0  0  0  0  0  0
    7.8079   -2.6961    0.0000 C   0  0  0  0  0  0  0  0  0  0  0  0
    6.9829   -2.6961    0.0000 C   0  0  0  0  0  0  0  0  0  0  0  0
    9.6405   -1.6011    0.0000 C   0  0  0  0  0  0  0  0  0  0  0  0
   10.2535   -1.0490    0.0000 C   0  0  0  0  0  0  0  0  0  0  0  0
   10.1925   -2.2142    0.0000 C   0  0  0  0  0  0  0  0  0  0  0  0
    9.0884   -0.9880    0.0000 C   0  0  0  0  0  0  0  0  0  0  0  0
  1  2  1  0  0  0  0
  2  3  1  0  0  0  0
  3  4  1  0  0  0  0
  4  5  1  0  0  0  0
  5  6  1  0  0  0  0
  6  7  1  0  0  0  0
  4  8  1  0  0  0  0
  8  9  2  0  0  0  0
  9 10  1  0  0  0  0
 10 11  2  0  0  0  0
 11 12  1  0  0  0  0
 12 13  2  0  0  0  0
  8 13  1  0  0  0  0
 12 14  1  0  0  0  0
 14 15  2  0  0  0  0
 15 16  1  0  0  0  0
 15 17  1  0  0  0  0
 17 18  2  0  0  0  0
 18 19  1  0  0  0  0
 19 20  1  0  0  0  0
 20 21  2  0  0  0  0
 21 22  1  0  0  0  0
 18 22  1  0  0  0  0
 22 23  2  0  0  0  0
 14 23  1  0  0  0  0
 19 24  1  0  0  0  0
 24 25  1  0  0  0  0
 24 26  1  0  0  0  0
 24 27  1  0  0  0  0
M  END
> <ID>
CPD_5402

$$$$
CPD_5407
  Mrv1822 09091914012D          

 26 29  0  0  0  0            999 V2000
    0.6288   -2.9346    0.0000 C   0  0  0  0  0  0  0  0  0  0  0  0
    0.8838   -2.1500    0.0000 C   0  0  0  0  0  0  0  0  0  0  0  0
    1.6684   -2.4049    0.0000 C   0  0  0  0  0  0  0  0  0  0  0  0
    0.0992   -1.8951    0.0000 C   0  0  0  0  0  0  0  0  0  0  0  0
    1.1387   -1.3654    0.0000 N   0  0  0  0  0  0  0  0  0  0  0  0
    0.6538   -0.6979    0.0000 N   0  0  0  0  0  0  0  0  0  0  0  0
    1.1387   -0.0305    0.0000 N   0  0  0  0  0  0  0  0  0  0  0  0
    1.9233   -0.2854    0.0000 C   0  0  0  0  0  0  0  0  0  0  0  0
    2.6378    0.1271    0.0000 C   0  0  0  0  0  0  0  0  0  0  0  0
    3.3523   -0.2854    0.0000 C   0  0  0  0  0  0  0  0  0  0  0  0
    4.0668    0.1271    0.0000 C   0  0  0  0  0  0  0  0  0  0  0  0
    4.1530    0.9475    0.0000 C   0  0  0  0  0  0  0  0  0  0  0  0
    4.9600    1.1191    0.0000 N   0  0  0  0  0  0  0  0  0  0  0  0
    5.2955    1.8727    0.0000 C   0  0  0  0  0  0  0  0  0  0  0  0
    6.1160    1.9590    0.0000 C   0  0  0  0  0  0  0  0  0  0  0  0
    6.4516    2.7127    0.0000 C   0  0  0  0  0  0  0  0  0  0  0  0
    7.2720    2.7989    0.0000 C   0  0  0  0  0  0  0  0  0  0  0  0
    7.7570    2.1314    0.0000 C   0  0  0  0  0  0  0  0  0  0  0  0
    7.4214    1.3778    0.0000 C   0  0  0  0  0  0  0  0  0  0  0  0
    6.6009    1.2915    0.0000 C   0  0  0  0  0  0  0  0  0  0  0  0
    5.3725    0.4046    0.0000 N   0  0  0  0  0  0  0  0  0  0  0  0
    4.8204   -0.2085    0.0000 C   0  0  0  0  0  0  0  0  0  0  0  0
    3.3523   -1.1104    0.0000 C   0  0  0  0  0  0  0  0  0  0  0  0
    4.0668   -1.5229    0.0000 F   0  0  0  0  0  0  0  0  0  0  0  0
    2.6378   -1.5229    0.0000 C   0  0  0  0  0  0  0  0  0  0  0  0
    1.9233   -1.1104    0.0000 C   0  0  0  0  0  0  0  0  0  0  0  0
  1  2  1  0  0  0  0
  2  3  1  0  0  0  0
  2  4  1  0  0  0  0
  2  5  1  0  0  0  0
  5  6  1  0  0  0  0
  6  7  2  0  0  0  0
  7  8  1  0  0  0  0
  8  9  2  0  0  0  0
  9 10  1  0  0  0  0
 10 11  1  0  0  0  0
 11 12  2  0  0  0  0
 12 13  1  0  0  0  0
 13 14  1  0  0  0  0
 14 15  1  0  0  0  0
 15 16  2  0  0  0  0
 16 17  1  0  0  0  0
 17 18  2  0  0  0  0
 18 19  1  0  0  0  0
 19 20  2  0  0  0  0
 15 20  1  0  0  0  0
 13 21  1  0  0  0  0
 21 22  2  0  0  0  0
 11 22  1  0  0  0  0
 10 23  2  0  0  0  0
 23 24  1  0  0  0  0
 23 25  1  0  0  0  0
 25 26  2  0  0  0  0
  5 26  1  0  0  0  0
  8 26  1  0  0  0  0
M  END
> <ID>
CPD_5407

$$$$
CPD_5412
  Mrv1822 09091914012D          

 26 28  0  0  0  0            999 V2000
    1.9233    3.5854    0.0000 C   0  0  0  0  0  0  0  0  0  0  0  0
    2.6378    3.1729    0.0000 C   0  0  0  0  0  0  0  0  0  0  0  0
    3.3523    3.5854    0.0000 O   0  0  0  0  0  0  0  0  0  0  0  0
    4.0668    3.1729    0.0000 C   0  0  0  0  0  0  0  0  0  0  0  0
    4.7812    3.5854    0.0000 C   0  0  0  0  0  0  0  0  0  0  0  0
    4.7812    4.4104    0.0000 F   0  0  0  0  0  0  0  0  0  0  0  0
    5.4957    3.1729    0.0000 C   0  0  0  0  0  0  0  0  0  0  0  0
    6.2102    3.5854    0.0000 C   0  0  0  0  0  0  0  0  0  0  0  0
    6.9246    3.1729    0.0000 O   0  0  0  0  0  0  0  0  0  0  0  0
    5.4957    2.3479    0.0000 C   0  0  0  0  0  0  0  0  0  0  0  0
    4.7812    1.9354    0.0000 C   0  0  0  0  0  0  0  0  0  0  0  0
    4.0668    2.3479    0.0000 C   0  0  0  0  0  0  0  0  0  0  0  0
    3.3523    1.9354    0.0000 C   0  0  0  0  0  0  0  0  0  0  0  0
    3.3523    1.1104    0.0000 C   0  0  0  0  0  0  0  0  0  0  0  0
    4.0668    0.6979    0.0000 F   0  0  0  0  0  0  0  0  0  0  0  0
    2.6378    0.6979    0.0000 C   0  0  0  0  0  0  0  0  0  0  0  0
    1.9233    1.1104    0.0000 C   0  0  0  0  0  0  0  0  0  0  0  0
    1.1387    0.8555    0.0000 N   0  0  0  0  0  0  0  0  0  0  0  0
    0.6538    1.5229    0.0000 N   0  0  0  0  0  0  0  0  0  0  0  0
    1.1387    2.1904    0.0000 N   0  0  0  0  0  0  0  0  0  0  0  0
    1.9233    1.9354    0.0000 C   0  0  0  0  0  0  0  0  0  0  0  0
    2.6378    2.3479    0.0000 C   0  0  0  0  0  0  0  0  0  0  0  0
    0.8838    0.0709    0.0000 C   0  0  0  0  0  0  0  0  0  0  0  0
    0.6288   -0.7137    0.0000 C   0  0  0  0  0  0  0  0  0  0  0  0
    0.0992    0.3258    0.0000 C   0  0  0  0  0  0  0  0  0  0  0  0
    1.6684   -0.1841    0.0000 C   0  0  0  0  0  0  0  0  0  0  0  0
  1  2  1  0  0  0  0
  2  3  1  0  0  0  0
  3  4  1  0  0  0  0
  4  5  2  0  0  0  0
  5  6  1  0  0  0  0
  5  7  1  0  0  0  0
  7  8  1  0  0  0  0
  8  9  1  0  0  0  0
  7 10  2  0  0  0  0
 10 11  1  0  0  0  0
 11 12  2  0  0  0  0
  4 12  1  0  0  0  0
 12 13  1  0  0  0  0
 13 14  2  0  0  0  0
 14 15  1  0  0  0  0
 14 16  1  0  0  0  0
 16 17  2  0  0  0  0
 17 18  1  0  0  0  0
 18 19  1  0  0  0  0
 19 20  2  0  0  0  0
 20 21  1  0  0  0  0
 17 21  1  0  0  0  0
 21 22  2  0  0  0  0
 13 22  1  0  0  0  0
 18 23  1  0  0  0  0
 23 24  1  0  0  0  0
 23 25  1  0  0  0  0
 23 26  1  0  0  0  0
M  END
> <ID>
CPD_5412

$$$$
CPD_5417
  Mrv1822 09091914012D          

 28 31  0  0  0  0            999 V2000
   -1.7224    4.9500    0.0000 C   0  0  0  0  0  0  0  0  0  0  0  0
   -1.0079    4.5375    0.0000 C   0  0  0  0  0  0  0  0  0  0  0  0
   -0.2934    4.9500    0.0000 O   0  0  0  0  0  0  0  0  0  0  0  0
    0.4210    4.5375    0.0000 C   0  0  0  0  0  0  0  0  0  0  0  0
    0.4210    3.7125    0.0000 O   0  0  0  0  0  0  0  0  0  0  0  0
    1.1355    4.9500    0.0000 C   0  0  0  0  0  0  0  0  0  0  0  0
    1.1355    5.7750    0.0000 C   0  0  0  0  0  0  0  0  0  0  0  0
    1.8500    6.1875    0.0000 C   0  0  0  0  0  0  0  0  0  0  0  0
    2.5645    5.7750    0.0000 C   0  0  0  0  0  0  0  0  0  0  0  0
    2.5645    4.9500    0.0000 C   0  0  0  0  0  0  0  0  0  0  0  0
    3.2789    4.5375    0.0000 O   0  0  0  0  0  0  0  0  0  0  0  0
    3.2789    3.7125    0.0000 C   0  0  0  0  0  0  0  0  0  0  0  0
    3.9934    3.3000    0.0000 N   0  0  0  0  0  0  0  0  0  0  0  0
    3.9934    2.4750    0.0000 N   0  0  0  0  0  0  0  0  0  0  0  0
    3.2789    2.0625    0.0000 C   0  0  0  0  0  0  0  0  0  0  0  0
    2.5645    2.4750    0.0000 C   0  0  0  0  0  0  0  0  0  0  0  0
    2.5645    3.3000    0.0000 C   0  0  0  0  0  0  0  0  0  0  0  0
    3.2789    1.2375    0.0000 C   0  0  0  0  0  0  0  0  0  0  0  0
    3.9934    0.8250    0.0000 C   0  0  0  0  0  0  0  0  0  0  0  0
    3.9934    0.0000    0.0000 C   0  0  0  0  0  0  0  0  0  0  0  0
    4.7079   -0.4125    0.0000 C   0  0  0  0  0  0  0  0  0  0  0  0
    3.2789   -0.4125    0.0000 C   0  0  0  0  0  0  0  0  0  0  0  0
    2.5645    0.0000    0.0000 N   0  0  0  0  0  0  0  0  0  0  0  0
    1.7798   -0.2549    0.0000 C   0  0  0  0  0  0  0  0  0  0  0  0
    1.2949    0.4125    0.0000 C   0  0  0  0  0  0  0  0  0  0  0  0
    1.7798    1.0799    0.0000 N   0  0  0  0  0  0  0  0  0  0  0  0
    2.5645    0.8250    0.0000 C   0  0  0  0  0  0  0  0  0  0  0  0
    1.8500    4.5375    0.0000 C   0  0  0  0  0  0  0  0  0  0  0  0
  1  2  1  0  0  0  0
  2  3  1  0  0  0  0
  3  4  1  0  0  0  0
  4  5  2  0  0  0  0
  4  6  1  0  0  0  0
  6  7  2  0  0  0  0
  7  8  1  0  0  0  0
  8  9  2  0  0  0  0
  9 10  1  0  0  0  0
 10 11  1  0  0  0  0
 11 12  1  0  0  0  0
 12 13  2  0  0  0  0
 13 14  1  0  0  0  0
 14 15  2  0  0  0  0
 15 16  1  0  0  0  0
 16 17  2  0  0  0  0
 12 17  1  0  0  0  0
 15 18  1  0  0  0  0
 18 19  2  0  0  0  0
 19 20  1  0  0  0  0
 20 21  1  0  0  0  0
 20 22  2  0  0  0  0
 22 23  1  0  0  0  0
 23 24  1  0  0  0  0
 24 25  2  0  0  0  0
 25 26  1  0  0  0  0
 26 27  2  0  0  0  0
 18 27  1  0  0  0  0
 23 27  1  0  0  0  0
 10 28  2  0  0  0  0
  6 28  1  0  0  0  0
M  END
> <ID>
CPD_5417

$$$$
CPD_5422
  Mrv1822 09091914012D          

 22 24  0  0  0  0            999 V2000
    2.7845    0.6979    0.0000 C   0  0  0  0  0  0  0  0  0  0  0  0
    2.0701    1.1104    0.0000 C   0  0  0  0  0  0  0  0  0  0  0  0
    1.3556    0.6979    0.0000 C   0  0  0  0  0  0  0  0  0  0  0  0
    0.6411    1.1104    0.0000 N   0  0  0  0  0  0  0  0  0  0  0  0
   -0.1435    0.8555    0.0000 C   0  0  0  0  0  0  0  0  0  0  0  0
   -0.6284    1.5229    0.0000 C   0  0  0  0  0  0  0  0  0  0  0  0
   -0.1435    2.1904    0.0000 N   0  0  0  0  0  0  0  0  0  0  0  0
    0.6411    1.9354    0.0000 C   0  0  0  0  0  0  0  0  0  0  0  0
    1.3556    2.3479    0.0000 C   0  0  0  0  0  0  0  0  0  0  0  0
    2.0701    1.9354    0.0000 C   0  0  0  0  0  0  0  0  0  0  0  0
    1.3556    3.1729    0.0000 C   0  0  0  0  0  0  0  0  0  0  0  0
    0.6411    3.5854    0.0000 C   0  0  0  0  0  0  0  0  0  0  0  0
    0.6411    4.4104    0.0000 C   0  0  0  0  0  0  0  0  0  0  0  0
   -0.0734    4.8229    0.0000 F   0  0  0  0  0  0  0  0  0  0  0  0
    1.3556    4.8229    0.0000 C   0  0  0  0  0  0  0  0  0  0  0  0
    1.3556    5.6479    0.0000 N   0  0  0  0  0  0  0  0  0  0  0  0
    0.6411    6.0604    0.0000 C   0  0  0  0  0  0  0  0  0  0  0  0
   -0.0734    5.6479    0.0000 O   0  0  0  0  0  0  0  0  0  0  0  0
    0.6411    6.8854    0.0000 C   0  0  0  0  0  0  0  0  0  0  0  0
   -0.0734    7.2979    0.0000 N   0  0  0  0  0  0  0  0  0  0  0  0
    2.0701    4.4104    0.0000 C   0  0  0  0  0  0  0  0  0  0  0  0
    2.0701    3.5854    0.0000 C   0  0  0  0  0  0  0  0  0  0  0  0
  1  2  1  0  0  0  0
  2  3  2  0  0  0  0
  3  4  1  0  0  0  0
  4  5  1  0  0  0  0
  5  6  2  0  0  0  0
  6  7  1  0  0  0  0
  7  8  2  0  0  0  0
  4  8  1  0  0  0  0
  8  9  1  0  0  0  0
  9 10  2  0  0  0  0
  2 10  1  0  0  0  0
  9 11  1  0  0  0  0
 11 12  2  0  0  0  0
 12 13  1  0  0  0  0
 13 14  1  0  0  0  0
 13 15  2  0  0  0  0
 15 16  1  0  0  0  0
 16 17  1  0  0  0  0
 17 18  2  0  0  0  0
 17 19  1  0  0  0  0
 19 20  1  0  0  0  0
 15 21  1  0  0  0  0
 21 22  2  0  0  0  0
 11 22  1  0  0  0  0
M  END
> <ID>
CPD_5422

$$$$
CPD_5427
  Mrv1822 09091914012D          

 20 22  0  0  0  0            999 V2000
    2.7845    0.6979    0.0000 C   0  0  0  0  0  0  0  0  0  0  0  0
    2.0701    1.1104    0.0000 C   0  0  0  0  0  0  0  0  0  0  0  0
    1.3556    0.6979    0.0000 C   0  0  0  0  0  0  0  0  0  0  0  0
    0.6411    1.1104    0.0000 N   0  0  0  0  0  0  0  0  0  0  0  0
   -0.1435    0.8555    0.0000 C   0  0  0  0  0  0  0  0  0  0  0  0
   -0.6284    1.5229    0.0000 C   0  0  0  0  0  0  0  0  0  0  0  0
   -0.1435    2.1904    0.0000 N   0  0  0  0  0  0  0  0  0  0  0  0
    0.6411    1.9354    0.0000 C   0  0  0  0  0  0  0  0  0  0  0  0
    1.3556    2.3479    0.0000 C   0  0  0  0  0  0  0  0  0  0  0  0
    2.0701    1.9354    0.0000 C   0  0  0  0  0  0  0  0  0  0  0  0
    1.3556    3.1729    0.0000 C   0  0  0  0  0  0  0  0  0  0  0  0
    0.6411    3.5854    0.0000 C   0  0  0  0  0  0  0  0  0  0  0  0
    0.6411    4.4104    0.0000 C   0  0  0  0  0  0  0  0  0  0  0  0
   -0.0734    4.8229    0.0000 Br  0  0  0  0  0  0  0  0  0  0  0  0
    1.3556    4.8229    0.0000 C   0  0  0  0  0  0  0  0  0  0  0  0
    2.0701    4.4104    0.0000 N   0  0  0  0  0  0  0  0  0  0  0  0
    2.0701    3.5854    0.0000 C   0  0  0  0  0  0  0  0  0  0  0  0
    2.7845    3.1729    0.0000 C   0  0  0  0  0  0  0  0  0  0  0  0
    2.7845    2.3479    0.0000 O   0  0  0  0  0  0  0  0  0  0  0  0
    3.4990    3.5854    0.0000 O   0  0  0  0  0  0  0  0  0  0  0  0
  1  2  1  0  0  0  0
  2  3  2  0  0  0  0
  3  4  1  0  0  0  0
  4  5  1  0  0  0  0
  5  6  2  0  0  0  0
  6  7  1  0  0  0  0
  7  8  2  0  0  0  0
  4  8  1  0  0  0  0
  8  9  1  0  0  0  0
  9 10  2  0  0  0  0
  2 10  1  0  0  0  0
  9 11  1  0  0  0  0
 11 12  2  0  0  0  0
 12 13  1  0  0  0  0
 13 14  1  0  0  0  0
 13 15  2  0  0  0  0
 15 16  1  0  0  0  0
 16 17  2  0  0  0  0
 11 17  1  0  0  0  0
 17 18  1  0  0  0  0
 18 19  1  0  0  0  0
 18 20  2  0  0  0  0
M  END
> <ID>
CPD_5427

$$$$
CPD_5432
  Mrv1822 09091914012D          

 27 28  0  0  0  0            999 V2000
   -3.5724   -2.0625    0.0000 C   0  0  0  0  0  0  0  0  0  0  0  0
   -3.5724   -1.2375    0.0000 C   0  0  0  0  0  0  0  0  0  0  0  0
   -2.8579   -0.8250    0.0000 C   0  0  0  0  0  0  0  0  0  0  0  0
   -2.8579   -0.0000    0.0000 C   0  0  0  0  0  0  0  0  0  0  0  0
   -2.1434    0.4125    0.0000 N   0  0  0  0  0  0  0  0  0  0  0  0
   -1.4289   -0.0000    0.0000 C   0  0  0  0  0  0  0  0  0  0  0  0
   -1.4289   -0.8250    0.0000 C   0  0  0  0  0  0  0  0  0  0  0  0
   -0.7145   -1.2375    0.0000 C   0  0  0  0  0  0  0  0  0  0  0  0
   -0.7145   -2.0625    0.0000 C   0  0  0  0  0  0  0  0  0  0  0  0
   -2.1434    1.2375    0.0000 C   0  0  0  0  0  0  0  0  0  0  0  0
   -2.8579    1.6500    0.0000 O   0  0  0  0  0  0  0  0  0  0  0  0
   -1.4289    1.6500    0.0000 C   0  0  0  0  0  0  0  0  0  0  0  0
   -1.4289    2.4750    0.0000 C   0  0  0  0  0  0  0  0  0  0  0  0
   -0.7145    2.8875    0.0000 C   0  0  0  0  0  0  0  0  0  0  0  0
    0.0000    2.4750    0.0000 C   0  0  0  0  0  0  0  0  0  0  0  0
    0.0000    1.6500    0.0000 C   0  0  0  0  0  0  0  0  0  0  0  0
   -0.7145    1.2375    0.0000 C   0  0  0  0  0  0  0  0  0  0  0  0
   -2.1434    2.8875    0.0000 C   0  0  0  0  0  0  0  0  0  0  0  0
   -2.8579    2.4750    0.0000 C   0  0  0  0  0  0  0  0  0  0  0  0
   -3.5724    2.8875    0.0000 C   0  0  0  0  0  0  0  0  0  0  0  0
   -3.5724    3.7125    0.0000 C   0  0  0  0  0  0  0  0  0  0  0  0
   -2.8579    4.1250    0.0000 C   0  0  0  0  0  0  0  0  0  0  0  0
   -2.8579    4.9500    0.0000 N   0  0  0  0  0  0  0  0  0  0  0  0
   -3.5724    5.3625    0.0000 C   0  0  0  0  0  0  0  0  0  0  0  0
   -2.1434    3.7125    0.0000 C   0  0  0  0  0  0  0  0  0  0  0  0
   -1.4289    4.1250    0.0000 C   0  0  0  0  0  0  0  0  0  0  0  0
   -0.7145    4.5375    0.0000 N   0  0  0  0  0  0  0  0  0  0  0  0
  1  2  1  0  0  0  0
  2  3  1  0  0  0  0
  3  4  1  0  0  0  0
  4  5  1  0  0  0  0
  5  6  1  0  0  0  0
  6  7  1  0  0  0  0
  7  8  1  0  0  0  0
  8  9  1  0  0  0  0
  5 10  1  0  0  0  0
 10 11  2  0  0  0  0
 10 12  1  0  0  0  0
 12 13  2  0  0  0  0
 13 14  1  0  0  0  0
 14 15  2  0  0  0  0
 15 16  1  0  0  0  0
 16 17  2  0  0  0  0
 12 17  1  0  0  0  0
 13 18  1  0  0  0  0
 18 19  2  0  0  0  0
 19 20  1  0  0  0  0
 20 21  2  0  0  0  0
 21 22  1  0  0  0  0
 22 23  1  0  0  0  0
 23 24  1  0  0  0  0
 22 25  2  0  0  0  0
 18 25  1  0  0  0  0
 25 26  1  0  0  0  0
 26 27  3  0  0  0  0
M  END
> <ID>
CPD_5432

$$$$
CPD_5437
  Mrv1822 09091914012D          

 21 23  0  0  0  0            999 V2000
   -2.8579   -1.6500    0.0000 C   0  0  0  0  0  0  0  0  0  0  0  0
   -2.1434   -1.2375    0.0000 N   0  0  0  0  0  0  0  0  0  0  0  0
   -1.4289   -1.6500    0.0000 C   0  0  0  0  0  0  0  0  0  0  0  0
   -0.7145   -1.2375    0.0000 C   0  0  0  0  0  0  0  0  0  0  0  0
   -0.7145   -0.4125    0.0000 C   0  0  0  0  0  0  0  0  0  0  0  0
   -0.7145    0.4125    0.0000 N   0  0  0  0  0  0  0  0  0  0  0  0
    0.0000   -1.6500    0.0000 C   0  0  0  0  0  0  0  0  0  0  0  0
    0.0000   -2.4750    0.0000 C   0  0  0  0  0  0  0  0  0  0  0  0
   -0.7145   -2.8875    0.0000 C   0  0  0  0  0  0  0  0  0  0  0  0
   -1.4289   -2.4750    0.0000 C   0  0  0  0  0  0  0  0  0  0  0  0
    0.7145   -1.2375    0.0000 C   0  0  0  0  0  0  0  0  0  0  0  0
    0.7145   -0.4125    0.0000 C   0  0  0  0  0  0  0  0  0  0  0  0
    1.4289    0.0000    0.0000 C   0  0  0  0  0  0  0  0  0  0  0  0
    2.1434   -0.4125    0.0000 C   0  0  0  0  0  0  0  0  0  0  0  0
    2.8579    0.0000    0.0000 N   0  0  0  0  0  0  0  0  0  0  0  0
    3.5724   -0.4125    0.0000 C   0  0  0  0  0  0  0  0  0  0  0  0
    4.2868   -0.0000    0.0000 O   0  0  0  0  0  0  0  0  0  0  0  0
    3.5724   -1.2375    0.0000 C   0  0  0  0  0  0  0  0  0  0  0  0
    2.8579   -1.6500    0.0000 N   0  0  0  0  0  0  0  0  0  0  0  0
    2.1434   -1.2375    0.0000 C   0  0  0  0  0  0  0  0  0  0  0  0
    1.4289   -1.6500    0.0000 C   0  0  0  0  0  0  0  0  0  0  0  0
  1  2  1  0  0  0  0
  2  3  1  0  0  0  0
  3  4  2  0  0  0  0
  4  5  1  0  0  0  0
  5  6  3  0  0  0  0
  4  7  1  0  0  0  0
  7  8  2  0  0  0  0
  8  9  1  0  0  0  0
  9 10  2  0  0  0  0
  3 10  1  0  0  0  0
  7 11  1  0  0  0  0
 11 12  2  0  0  0  0
 12 13  1  0  0  0  0
 13 14  2  0  0  0  0
 14 15  1  0  0  0  0
 15 16  2  0  0  0  0
 16 17  1  0  0  0  0
 16 18  1  0  0  0  0
 18 19  2  0  0  0  0
 19 20  1  0  0  0  0
 14 20  1  0  0  0  0
 20 21  2  0  0  0  0
 11 21  1  0  0  0  0
M  END
> <ID>
CPD_5437

$$$$
CPD_5442
  Mrv1822 09091914012D          

 32 34  0  0  0  0            999 V2000
    2.1434   -7.8375    0.0000 C   0  0  0  0  0  0  0  0  0  0  0  0
    2.8579   -8.2500    0.0000 C   0  0  0  0  0  0  0  0  0  0  0  0
    3.5724   -7.8375    0.0000 C   0  0  0  0  0  0  0  0  0  0  0  0
    4.2868   -8.2500    0.0000 C   0  0  0  0  0  0  0  0  0  0  0  0
    5.0013   -7.8375    0.0000 N   0  0  0  0  0  0  0  0  0  0  0  0
    5.7158   -8.2500    0.0000 C   0  0  0  0  0  0  0  0  0  0  0  0
    6.4302   -7.8375    0.0000 C   0  0  0  0  0  0  0  0  0  0  0  0
    7.1447   -8.2500    0.0000 C   0  0  0  0  0  0  0  0  0  0  0  0
    7.8592   -7.8375    0.0000 O   0  0  0  0  0  0  0  0  0  0  0  0
    4.2868   -9.0750    0.0000 N   0  0  0  0  0  0  0  0  0  0  0  0
    3.5724   -9.4875    0.0000 C   0  0  0  0  0  0  0  0  0  0  0  0
    2.8579   -9.0750    0.0000 C   0  0  0  0  0  0  0  0  0  0  0  0
    2.1434   -9.4875    0.0000 C   0  0  0  0  0  0  0  0  0  0  0  0
    2.1434  -10.3125    0.0000 C   0  0  0  0  0  0  0  0  0  0  0  0
    1.4289  -10.7250    0.0000 C   0  0  0  0  0  0  0  0  0  0  0  0
    0.7145  -10.3125    0.0000 C   0  0  0  0  0  0  0  0  0  0  0  0
    0.7145   -9.4875    0.0000 C   0  0  0  0  0  0  0  0  0  0  0  0
    1.4289   -9.0750    0.0000 C   0  0  0  0  0  0  0  0  0  0  0  0
    0.0000   -9.0750    0.0000 C   0  0  0  0  0  0  0  0  0  0  0  0
    0.4125   -8.3605    0.0000 C   0  0  0  0  0  0  0  0  0  0  0  0
   -0.4125   -9.7895    0.0000 C   0  0  0  0  0  0  0  0  0  0  0  0
   -0.7145   -8.6625    0.0000 N   0  0  0  0  0  0  0  0  0  0  0  0
   -1.4289   -9.0750    0.0000 C   0  0  0  0  0  0  0  0  0  0  0  0
   -1.4289   -9.9000    0.0000 O   0  0  0  0  0  0  0  0  0  0  0  0
   -2.1434   -8.6625    0.0000 O   0  0  0  0  0  0  0  0  0  0  0  0
   -2.8579   -9.0750    0.0000 C   0  0  0  0  0  0  0  0  0  0  0  0
   -3.5724   -8.6625    0.0000 C   0  0  0  0  0  0  0  0  0  0  0  0
   -4.2868   -9.0750    0.0000 C   0  0  0  0  0  0  0  0  0  0  0  0
   -5.0013   -8.6625    0.0000 C   0  0  0  0  0  0  0  0  0  0  0  0
   -5.0013   -7.8375    0.0000 C   0  0  0  0  0  0  0  0  0  0  0  0
   -4.2868   -7.4250    0.0000 C   0  0  0  0  0  0  0  0  0  0  0  0
   -3.5724   -7.8375    0.0000 C   0  0  0  0  0  0  0  0  0  0  0  0
  1  2  1  0  0  0  0
  2  3  2  0  0  0  0
  3  4  1  0  0  0  0
  4  5  1  0  0  0  0
  5  6  1  0  0  0  0
  6  7  1  0  0  0  0
  7  8  1  0  0  0  0
  8  9  1  0  0  0  0
  4 10  2  0  0  0  0
 10 11  1  0  0  0  0
 11 12  2  0  0  0  0
  2 12  1  0  0  0  0
 12 13  1  0  0  0  0
 13 14  2  0  0  0  0
 14 15  1  0  0  0  0
 15 16  2  0  0  0  0
 16 17  1  0  0  0  0
 17 18  2  0  0  0  0
 13 18  1  0  0  0  0
 17 19  1  0  0  0  0
 19 20  1  0  0  0  0
 19 21  1  0  0  0  0
 19 22  1  0  0  0  0
 22 23  1  0  0  0  0
 23 24  2  0  0  0  0
 23 25  1  0  0  0  0
 25 26  1  0  0  0  0
 26 27  1  0  0  0  0
 27 28  2  0  0  0  0
 28 29  1  0  0  0  0
 29 30  2  0  0  0  0
 30 31  1  0  0  0  0
 31 32  2  0  0  0  0
 27 32  1  0  0  0  0
M  END
> <ID>
CPD_5442

$$$$
CPD_5447
  Mrv1822 09091914012D          

 33 36  0  0  0  0            999 V2000
   -1.7488    3.4894    0.0000 C   0  0  0  0  0  0  0  0  0  0  0  0
   -1.1968    2.8763    0.0000 C   0  0  0  0  0  0  0  0  0  0  0  0
   -0.3898    3.0478    0.0000 C   0  0  0  0  0  0  0  0  0  0  0  0
    0.1622    2.4347    0.0000 O   0  0  0  0  0  0  0  0  0  0  0  0
    0.9692    2.6062    0.0000 C   0  0  0  0  0  0  0  0  0  0  0  0
    1.2241    3.3908    0.0000 C   0  0  0  0  0  0  0  0  0  0  0  0
    0.6721    4.0039    0.0000 O   0  0  0  0  0  0  0  0  0  0  0  0
    0.9270    4.7886    0.0000 C   0  0  0  0  0  0  0  0  0  0  0  0
    2.0311    3.5624    0.0000 C   0  0  0  0  0  0  0  0  0  0  0  0
    2.5831    2.9493    0.0000 C   0  0  0  0  0  0  0  0  0  0  0  0
    3.3901    3.1208    0.0000 Br  0  0  0  0  0  0  0  0  0  0  0  0
    2.3282    2.1647    0.0000 C   0  0  0  0  0  0  0  0  0  0  0  0
    1.5212    1.9931    0.0000 C   0  0  0  0  0  0  0  0  0  0  0  0
    1.2663    1.2085    0.0000 C   0  0  0  0  0  0  0  0  0  0  0  0
    0.4593    1.0370    0.0000 C   0  0  0  0  0  0  0  0  0  0  0  0
    0.2044    0.2524    0.0000 C   0  0  0  0  0  0  0  0  0  0  0  0
    0.7564   -0.3607    0.0000 C   0  0  0  0  0  0  0  0  0  0  0  0
    1.5634   -0.1892    0.0000 C   0  0  0  0  0  0  0  0  0  0  0  0
    1.8183    0.5954    0.0000 C   0  0  0  0  0  0  0  0  0  0  0  0
    2.1154   -0.8023    0.0000 C   0  0  0  0  0  0  0  0  0  0  0  0
    2.6674   -0.1892    0.0000 C   0  0  0  0  0  0  0  0  0  0  0  0
    3.4744   -0.3607    0.0000 C   0  0  0  0  0  0  0  0  0  0  0  0
    4.0264    0.2524    0.0000 C   0  0  0  0  0  0  0  0  0  0  0  0
    4.8334    0.0808    0.0000 C   0  0  0  0  0  0  0  0  0  0  0  0
    5.0883   -0.7038    0.0000 C   0  0  0  0  0  0  0  0  0  0  0  0
    4.5363   -1.3169    0.0000 C   0  0  0  0  0  0  0  0  0  0  0  0
    3.7293   -1.1454    0.0000 C   0  0  0  0  0  0  0  0  0  0  0  0
    1.4480   -1.2872    0.0000 N   0  0  0  0  0  0  0  0  0  0  0  0
    1.7029   -2.0718    0.0000 C   0  0  0  0  0  0  0  0  0  0  0  0
    1.2180   -2.7393    0.0000 N   0  0  0  0  0  0  0  0  0  0  0  0
    2.5279   -2.0718    0.0000 N   0  0  0  0  0  0  0  0  0  0  0  0
    2.7828   -1.2872    0.0000 C   0  0  0  0  0  0  0  0  0  0  0  0
    3.5675   -1.5422    0.0000 O   0  0  0  0  0  0  0  0  0  0  0  0
  1  2  1  0  0  0  0
  2  3  1  0  0  0  0
  3  4  1  0  0  0  0
  4  5  1  0  0  0  0
  5  6  2  0  0  0  0
  6  7  1  0  0  0  0
  7  8  1  0  0  0  0
  6  9  1  0  0  0  0
  9 10  2  0  0  0  0
 10 11  1  0  0  0  0
 10 12  1  0  0  0  0
 12 13  2  0  0  0  0
  5 13  1  0  0  0  0
 13 14  1  0  0  0  0
 14 15  2  0  0  0  0
 15 16  1  0  0  0  0
 16 17  2  0  0  0  0
 17 18  1  0  0  0  0
 18 19  2  0  0  0  0
 14 19  1  0  0  0  0
 18 20  1  0  0  0  0
 20 21  1  0  0  0  0
 21 22  1  0  0  0  0
 22 23  2  0  0  0  0
 23 24  1  0  0  0  0
 24 25  2  0  0  0  0
 25 26  1  0  0  0  0
 26 27  2  0  0  0  0
 22 27  1  0  0  0  0
 20 28  1  0  0  0  0
 28 29  1  0  0  0  0
 29 30  1  0  0  0  0
 29 31  2  0  0  0  0
 31 32  1  0  0  0  0
 20 32  1  0  0  0  0
 32 33  2  0  0  0  0
M  END
> <ID>
CPD_5447

$$$$
CPD_5452
  Mrv1822 09091914012D          

 23 24  0  0  0  0            999 V2000
   -0.8212    1.1759    0.0000 C   0  0  0  0  0  0  0  0  0  0  0  0
   -0.1067    0.7634    0.0000 C   0  0  0  0  0  0  0  0  0  0  0  0
    0.6078    1.1759    0.0000 C   0  0  0  0  0  0  0  0  0  0  0  0
    1.3222    0.7634    0.0000 O   0  0  0  0  0  0  0  0  0  0  0  0
    2.0367    1.1759    0.0000 C   0  0  0  0  0  0  0  0  0  0  0  0
    2.0367    2.0009    0.0000 C   0  0  0  0  0  0  0  0  0  0  0  0
    1.3222    2.4134    0.0000 O   0  0  0  0  0  0  0  0  0  0  0  0
    1.3222    3.2384    0.0000 C   0  0  0  0  0  0  0  0  0  0  0  0
    2.7512    2.4134    0.0000 C   0  0  0  0  0  0  0  0  0  0  0  0
    3.4656    2.0009    0.0000 C   0  0  0  0  0  0  0  0  0  0  0  0
    4.1801    2.4134    0.0000 Br  0  0  0  0  0  0  0  0  0  0  0  0
    3.4656    1.1759    0.0000 C   0  0  0  0  0  0  0  0  0  0  0  0
    2.7512    0.7634    0.0000 C   0  0  0  0  0  0  0  0  0  0  0  0
    2.7512   -0.0616    0.0000 C   0  0  0  0  0  0  0  0  0  0  0  0
    3.4186   -0.5465    0.0000 C   0  0  0  0  0  0  0  0  0  0  0  0
    3.1637   -1.3312    0.0000 C   0  0  0  0  0  0  0  0  0  0  0  0
    2.3387   -1.3312    0.0000 C   0  0  0  0  0  0  0  0  0  0  0  0
    2.0837   -0.5465    0.0000 O   0  0  0  0  0  0  0  0  0  0  0  0
    1.8538   -1.9986    0.0000 C   0  0  0  0  0  0  0  0  0  0  0  0
    1.0333   -1.9124    0.0000 O   0  0  0  0  0  0  0  0  0  0  0  0
    2.1893   -2.7523    0.0000 N   0  0  0  0  0  0  0  0  0  0  0  0
    3.0098   -2.8385    0.0000 C   0  0  0  0  0  0  0  0  0  0  0  0
    1.7044   -3.4197    0.0000 C   0  0  0  0  0  0  0  0  0  0  0  0
  1  2  1  0  0  0  0
  2  3  1  0  0  0  0
  3  4  1  0  0  0  0
  4  5  1  0  0  0  0
  5  6  2  0  0  0  0
  6  7  1  0  0  0  0
  7  8  1  0  0  0  0
  6  9  1  0  0  0  0
  9 10  2  0  0  0  0
 10 11  1  0  0  0  0
 10 12  1  0  0  0  0
 12 13  2  0  0  0  0
  5 13  1  0  0  0  0
 13 14  1  0  0  0  0
 14 15  2  0  0  0  0
 15 16  1  0  0  0  0
 16 17  2  0  0  0  0
 17 18  1  0  0  0  0
 14 18  1  0  0  0  0
 17 19  1  0  0  0  0
 19 20  2  0  0  0  0
 19 21  1  0  0  0  0
 21 22  1  0  0  0  0
 21 23  1  0  0  0  0
M  END
> <ID>
CPD_5452

$$$$
CPD_5457
  Mrv1822 09091914012D          

 31 33  0  0  0  0            999 V2000
   -1.8414   -1.7605    0.0000 C   0  0  0  0  0  0  0  0  0  0  0  0
   -1.4289   -2.4750    0.0000 O   0  0  0  0  0  0  0  0  0  0  0  0
   -0.6039   -2.4750    0.0000 C   0  0  0  0  0  0  0  0  0  0  0  0
   -0.1914   -1.7605    0.0000 O   0  0  0  0  0  0  0  0  0  0  0  0
   -0.1914   -3.1895    0.0000 C   0  0  0  0  0  0  0  0  0  0  0  0
    0.6336   -3.1895    0.0000 N   0  0  0  0  0  0  0  0  0  0  0  0
    1.0461   -3.9039    0.0000 C   0  0  0  0  0  0  0  0  0  0  0  0
    1.8711   -3.9039    0.0000 C   0  0  0  0  0  0  0  0  0  0  0  0
    2.2836   -4.6184    0.0000 C   0  0  0  0  0  0  0  0  0  0  0  0
    1.8711   -5.3329    0.0000 C   0  0  0  0  0  0  0  0  0  0  0  0
    1.0461   -5.3329    0.0000 C   0  0  0  0  0  0  0  0  0  0  0  0
    0.6336   -4.6184    0.0000 C   0  0  0  0  0  0  0  0  0  0  0  0
    2.2836   -6.0474    0.0000 C   0  0  0  0  0  0  0  0  0  0  0  0
    3.1086   -6.0474    0.0000 C   0  0  0  0  0  0  0  0  0  0  0  0
    3.5211   -5.3329    0.0000 Cl  0  0  0  0  0  0  0  0  0  0  0  0
    3.5211   -6.7618    0.0000 C   0  0  0  0  0  0  0  0  0  0  0  0
    3.1086   -7.4763    0.0000 C   0  0  0  0  0  0  0  0  0  0  0  0
    2.2836   -7.4763    0.0000 C   0  0  0  0  0  0  0  0  0  0  0  0
    1.8711   -8.1908    0.0000 C   0  0  0  0  0  0  0  0  0  0  0  0
    2.2836   -8.9052    0.0000 C   0  0  0  0  0  0  0  0  0  0  0  0
    2.6961   -9.6197    0.0000 N   0  0  0  0  0  0  0  0  0  0  0  0
    1.8711   -6.7618    0.0000 C   0  0  0  0  0  0  0  0  0  0  0  0
    1.0461   -2.4750    0.0000 S   0  0  0  0  0  0  0  0  0  0  0  0
    1.7605   -2.8875    0.0000 O   0  0  0  0  0  0  0  0  0  0  0  0
    0.3316   -2.0625    0.0000 O   0  0  0  0  0  0  0  0  0  0  0  0
    1.4586   -1.7605    0.0000 C   0  0  0  0  0  0  0  0  0  0  0  0
    1.0461   -1.0461    0.0000 C   0  0  0  0  0  0  0  0  0  0  0  0
    1.4586   -0.3316    0.0000 C   0  0  0  0  0  0  0  0  0  0  0  0
    2.2836   -0.3316    0.0000 C   0  0  0  0  0  0  0  0  0  0  0  0
    2.6961   -1.0461    0.0000 C   0  0  0  0  0  0  0  0  0  0  0  0
    2.2836   -1.7605    0.0000 C   0  0  0  0  0  0  0  0  0  0  0  0
  1  2  1  0  0  0  0
  2  3  1  0  0  0  0
  3  4  2  0  0  0  0
  3  5  1  0  0  0  0
  5  6  1  0  0  0  0
  6  7  1  0  0  0  0
  7  8  2  0  0  0  0
  8  9  1  0  0  0  0
  9 10  2  0  0  0  0
 10 11  1  0  0  0  0
 11 12  2  0  0  0  0
  7 12  1  0  0  0  0
 10 13  1  0  0  0  0
 13 14  2  0  0  0  0
 14 15  1  0  0  0  0
 14 16  1  0  0  0  0
 16 17  2  0  0  0  0
 17 18  1  0  0  0  0
 18 19  1  0  0  0  0
 19 20  1  0  0  0  0
 20 21  3  0  0  0  0
 18 22  2  0  0  0  0
 13 22  1  0  0  0  0
  6 23  1  0  0  0  0
 23 24  2  0  0  0  0
 23 25  2  0  0  0  0
 23 26  1  0  0  0  0
 26 27  2  0  0  0  0
 27 28  1  0  0  0  0
 28 29  2  0  0  0  0
 29 30  1  0  0  0  0
 30 31  2  0  0  0  0
 26 31  1  0  0  0  0
M  END
> <ID>
CPD_5457

$$$$
CPD_5462
  Mrv1822 09091914012D          

 30 32  0  0  0  0            999 V2000
   -1.8414   -1.7605    0.0000 C   0  0  0  0  0  0  0  0  0  0  0  0
   -1.4289   -2.4750    0.0000 O   0  0  0  0  0  0  0  0  0  0  0  0
   -0.6039   -2.4750    0.0000 C   0  0  0  0  0  0  0  0  0  0  0  0
   -0.1914   -1.7605    0.0000 O   0  0  0  0  0  0  0  0  0  0  0  0
   -0.1914   -3.1895    0.0000 C   0  0  0  0  0  0  0  0  0  0  0  0
    0.6336   -3.1895    0.0000 N   0  0  0  0  0  0  0  0  0  0  0  0
    1.0461   -3.9039    0.0000 C   0  0  0  0  0  0  0  0  0  0  0  0
    1.8711   -3.9039    0.0000 C   0  0  0  0  0  0  0  0  0  0  0  0
    2.2836   -4.6184    0.0000 C   0  0  0  0  0  0  0  0  0  0  0  0
    1.8711   -5.3329    0.0000 C   0  0  0  0  0  0  0  0  0  0  0  0
    1.0461   -5.3329    0.0000 C   0  0  0  0  0  0  0  0  0  0  0  0
    0.6336   -4.6184    0.0000 C   0  0  0  0  0  0  0  0  0  0  0  0
    2.2836   -6.0474    0.0000 C   0  0  0  0  0  0  0  0  0  0  0  0
    3.1086   -6.0474    0.0000 C   0  0  0  0  0  0  0  0  0  0  0  0
    3.5211   -6.7618    0.0000 C   0  0  0  0  0  0  0  0  0  0  0  0
    4.3461   -6.7618    0.0000 C   0  0  0  0  0  0  0  0  0  0  0  0
    3.1086   -7.4763    0.0000 C   0  0  0  0  0  0  0  0  0  0  0  0
    3.5211   -8.1908    0.0000 N   0  0  0  0  0  0  0  0  0  0  0  0
    2.2836   -7.4763    0.0000 C   0  0  0  0  0  0  0  0  0  0  0  0
    1.8711   -8.1908    0.0000 C   0  0  0  0  0  0  0  0  0  0  0  0
    1.8711   -6.7618    0.0000 C   0  0  0  0  0  0  0  0  0  0  0  0
    1.0461   -2.4750    0.0000 S   0  0  0  0  0  0  0  0  0  0  0  0
    1.7605   -2.8875    0.0000 O   0  0  0  0  0  0  0  0  0  0  0  0
    0.3316   -2.0625    0.0000 O   0  0  0  0  0  0  0  0  0  0  0  0
    1.4586   -1.7605    0.0000 C   0  0  0  0  0  0  0  0  0  0  0  0
    1.0461   -1.0461    0.0000 C   0  0  0  0  0  0  0  0  0  0  0  0
    1.4586   -0.3316    0.0000 C   0  0  0  0  0  0  0  0  0  0  0  0
    2.2836   -0.3316    0.0000 C   0  0  0  0  0  0  0  0  0  0  0  0
    2.6961   -1.0461    0.0000 C   0  0  0  0  0  0  0  0  0  0  0  0
    2.2836   -1.7605    0.0000 C   0  0  0  0  0  0  0  0  0  0  0  0
  1  2  1  0  0  0  0
  2  3  1  0  0  0  0
  3  4  2  0  0  0  0
  3  5  1  0  0  0  0
  5  6  1  0  0  0  0
  6  7  1  0  0  0  0
  7  8  2  0  0  0  0
  8  9  1  0  0  0  0
  9 10  2  0  0  0  0
 10 11  1  0  0  0  0
 11 12  2  0  0  0  0
  7 12  1  0  0  0  0
 10 13  1  0  0  0  0
 13 14  2  0  0  0  0
 14 15  1  0  0  0  0
 15 16  1  0  0  0  0
 15 17  2  0  0  0  0
 17 18  1  0  0  0  0
 17 19  1  0  0  0  0
 19 20  1  0  0  0  0
 19 21  2  0  0  0  0
 13 21  1  0  0  0  0
  6 22  1  0  0  0  0
 22 23  2  0  0  0  0
 22 24  2  0  0  0  0
 22 25  1  0  0  0  0
 25 26  2  0  0  0  0
 26 27  1  0  0  0  0
 27 28  2  0  0  0  0
 28 29  1  0  0  0  0
 29 30  2  0  0  0  0
 25 30  1  0  0  0  0
M  END
> <ID>
CPD_5462

$$$$
CPD_5467
  Mrv1822 09091914012D          

 30 32  0  0  0  0            999 V2000
   -1.8414   -1.7605    0.0000 C   0  0  0  0  0  0  0  0  0  0  0  0
   -1.4289   -2.4750    0.0000 O   0  0  0  0  0  0  0  0  0  0  0  0
   -0.6039   -2.4750    0.0000 C   0  0  0  0  0  0  0  0  0  0  0  0
   -0.1914   -1.7605    0.0000 O   0  0  0  0  0  0  0  0  0  0  0  0
   -0.1914   -3.1895    0.0000 C   0  0  0  0  0  0  0  0  0  0  0  0
    0.6336   -3.1895    0.0000 N   0  0  0  0  0  0  0  0  0  0  0  0
    1.0461   -3.9039    0.0000 C   0  0  0  0  0  0  0  0  0  0  0  0
    1.8711   -3.9039    0.0000 C   0  0  0  0  0  0  0  0  0  0  0  0
    2.2836   -4.6184    0.0000 C   0  0  0  0  0  0  0  0  0  0  0  0
    1.8711   -5.3329    0.0000 C   0  0  0  0  0  0  0  0  0  0  0  0
    1.0461   -5.3329    0.0000 C   0  0  0  0  0  0  0  0  0  0  0  0
    0.6336   -4.6184    0.0000 C   0  0  0  0  0  0  0  0  0  0  0  0
    2.2836   -6.0474    0.0000 C   0  0  0  0  0  0  0  0  0  0  0  0
    3.1086   -6.0474    0.0000 C   0  0  0  0  0  0  0  0  0  0  0  0
    3.5211   -6.7618    0.0000 C   0  0  0  0  0  0  0  0  0  0  0  0
    3.1086   -7.4763    0.0000 C   0  0  0  0  0  0  0  0  0  0  0  0
    2.2836   -7.4763    0.0000 C   0  0  0  0  0  0  0  0  0  0  0  0
    1.8711   -6.7618    0.0000 C   0  0  0  0  0  0  0  0  0  0  0  0
    1.0461   -6.7618    0.0000 C   0  0  0  0  0  0  0  0  0  0  0  0
    0.6336   -6.0474    0.0000 C   0  0  0  0  0  0  0  0  0  0  0  0
    0.6336   -7.4763    0.0000 O   0  0  0  0  0  0  0  0  0  0  0  0
    1.0461   -2.4750    0.0000 S   0  0  0  0  0  0  0  0  0  0  0  0
    1.7605   -2.8875    0.0000 O   0  0  0  0  0  0  0  0  0  0  0  0
    0.3316   -2.0625    0.0000 O   0  0  0  0  0  0  0  0  0  0  0  0
    1.4586   -1.7605    0.0000 C   0  0  0  0  0  0  0  0  0  0  0  0
    1.0461   -1.0461    0.0000 C   0  0  0  0  0  0  0  0  0  0  0  0
    1.4586   -0.3316    0.0000 C   0  0  0  0  0  0  0  0  0  0  0  0
    2.2836   -0.3316    0.0000 C   0  0  0  0  0  0  0  0  0  0  0  0
    2.6961   -1.0461    0.0000 C   0  0  0  0  0  0  0  0  0  0  0  0
    2.2836   -1.7605    0.0000 C   0  0  0  0  0  0  0  0  0  0  0  0
  1  2  1  0  0  0  0
  2  3  1  0  0  0  0
  3  4  2  0  0  0  0
  3  5  1  0  0  0  0
  5  6  1  0  0  0  0
  6  7  1  0  0  0  0
  7  8  2  0  0  0  0
  8  9  1  0  0  0  0
  9 10  2  0  0  0  0
 10 11  1  0  0  0  0
 11 12  2  0  0  0  0
  7 12  1  0  0  0  0
 10 13  1  0  0  0  0
 13 14  2  0  0  0  0
 14 15  1  0  0  0  0
 15 16  2  0  0  0  0
 16 17  1  0  0  0  0
 17 18  2  0  0  0  0
 13 18  1  0  0  0  0
 18 19  1  0  0  0  0
 19 20  1  0  0  0  0
 19 21  2  0  0  0  0
  6 22  1  0  0  0  0
 22 23  2  0  0  0  0
 22 24  2  0  0  0  0
 22 25  1  0  0  0  0
 25 26  2  0  0  0  0
 26 27  1  0  0  0  0
 27 28  2  0  0  0  0
 28 29  1  0  0  0  0
 29 30  2  0  0  0  0
 25 30  1  0  0  0  0
M  END
> <ID>
CPD_5467

$$$$
CPD_5472
  Mrv1822 09091914012D          

 32 34  0  0  1  0            999 V2000
    0.7145   -2.0625    0.0000 C   0  0  0  0  0  0  0  0  0  0  0  0
    1.4289   -2.4750    0.0000 C   0  0  1  0  0  0  0  0  0  0  0  0
    2.1434   -2.0625    0.0000 N   0  0  0  0  0  0  0  0  0  0  0  0
    1.4289   -3.3000    0.0000 C   0  0  0  0  0  0  0  0  0  0  0  0
    2.1434   -3.7125    0.0000 C   0  0  0  0  0  0  0  0  0  0  0  0
    2.1434   -4.5375    0.0000 C   0  0  0  0  0  0  0  0  0  0  0  0
    2.4790   -5.2912    0.0000 F   0  0  0  0  0  0  0  0  0  0  0  0
    1.4289   -4.9500    0.0000 C   0  0  0  0  0  0  0  0  0  0  0  0
    0.7145   -4.5375    0.0000 C   0  0  0  0  0  0  0  0  0  0  0  0
    0.7145   -3.7125    0.0000 C   0  0  0  0  0  0  0  0  0  0  0  0
    0.0000   -3.3000    0.0000 Cl  0  0  0  0  0  0  0  0  0  0  0  0
    2.8579   -3.3000    0.0000 C   0  0  0  0  0  0  0  0  0  0  0  0
    3.5724   -3.7125    0.0000 C   0  0  0  0  0  0  0  0  0  0  0  0
    4.2868   -3.3000    0.0000 C   0  0  0  0  0  0  0  0  0  0  0  0
    4.2868   -2.4750    0.0000 C   0  0  0  0  0  0  0  0  0  0  0  0
    3.5724   -2.0625    0.0000 C   0  0  0  0  0  0  0  0  0  0  0  0
    2.8579   -2.4750    0.0000 C   0  0  0  0  0  0  0  0  0  0  0  0
    2.5223   -1.7213    0.0000 Cl  0  0  0  0  0  0  0  0  0  0  0  0
    3.5724   -4.5375    0.0000 N   0  0  0  0  0  0  0  0  0  0  0  0
    2.8579   -4.9500    0.0000 C   0  0  0  0  0  0  0  0  0  0  0  0
    2.8579   -5.7750    0.0000 C   0  0  0  0  0  0  0  0  0  0  0  0
    3.5724   -6.1875    0.0000 O   0  0  0  0  0  0  0  0  0  0  0  0
    2.1434   -6.1875    0.0000 O   0  0  0  0  0  0  0  0  0  0  0  0
    4.2868   -4.9500    0.0000 S   0  0  0  0  0  0  0  0  0  0  0  0
    3.8743   -5.6645    0.0000 O   0  0  0  0  0  0  0  0  0  0  0  0
    4.6993   -4.2355    0.0000 O   0  0  0  0  0  0  0  0  0  0  0  0
    5.0013   -5.3625    0.0000 C   0  0  0  0  0  0  0  0  0  0  0  0
    5.7158   -4.9500    0.0000 C   0  0  0  0  0  0  0  0  0  0  0  0
    6.4302   -5.3625    0.0000 C   0  0  0  0  0  0  0  0  0  0  0  0
    6.4302   -6.1875    0.0000 C   0  0  0  0  0  0  0  0  0  0  0  0
    5.7158   -6.6000    0.0000 C   0  0  0  0  0  0  0  0  0  0  0  0
    5.0013   -6.1875    0.0000 C   0  0  0  0  0  0  0  0  0  0  0  0
  2  1  1  0  0  0  0
  2  3  1  1  0  0  0
  2  4  1  0  0  0  0
  4  5  2  0  0  0  0
  5  6  1  0  0  0  0
  6  7  1  0  0  0  0
  6  8  2  0  0  0  0
  8  9  1  0  0  0  0
  9 10  2  0  0  0  0
  4 10  1  0  0  0  0
 10 11  1  0  0  0  0
  5 12  1  0  0  0  0
 12 13  2  0  0  0  0
 13 14  1  0  0  0  0
 14 15  2  0  0  0  0
 15 16  1  0  0  0  0
 16 17  2  0  0  0  0
 12 17  1  0  0  0  0
 17 18  1  0  0  0  0
 13 19  1  0  0  0  0
 19 20  1  0  0  0  0
 20 21  1  0  0  0  0
 21 22  1  0  0  0  0
 21 23  2  0  0  0  0
 19 24  1  0  0  0  0
 24 25  2  0  0  0  0
 24 26  2  0  0  0  0
 24 27  1  0  0  0  0
 27 28  2  0  0  0  0
 28 29  1  0  0  0  0
 29 30  2  0  0  0  0
 30 31  1  0  0  0  0
 31 32  2  0  0  0  0
 27 32  1  0  0  0  0
M  END
> <ID>
CPD_5472

$$$$
CPD_5477
  Mrv1822 09091914012D          

 23 24  0  0  0  0            999 V2000
    0.0000    0.8250    0.0000 C   0  0  0  0  0  0  0  0  0  0  0  0
    0.0000   -0.0000    0.0000 C   0  0  0  0  0  0  0  0  0  0  0  0
    0.7145   -0.4125    0.0000 O   0  0  0  0  0  0  0  0  0  0  0  0
    0.7145   -1.2375    0.0000 C   0  0  0  0  0  0  0  0  0  0  0  0
    0.0000   -1.6500    0.0000 C   0  0  0  0  0  0  0  0  0  0  0  0
   -0.7145   -1.2375    0.0000 F   0  0  0  0  0  0  0  0  0  0  0  0
    0.0000   -2.4750    0.0000 C   0  0  0  0  0  0  0  0  0  0  0  0
    0.7145   -2.8875    0.0000 C   0  0  0  0  0  0  0  0  0  0  0  0
    1.4289   -2.4750    0.0000 C   0  0  0  0  0  0  0  0  0  0  0  0
    1.4289   -1.6500    0.0000 C   0  0  0  0  0  0  0  0  0  0  0  0
    2.1434   -1.2375    0.0000 C   0  0  0  0  0  0  0  0  0  0  0  0
    2.1434   -0.4125    0.0000 N   0  0  0  0  0  0  0  0  0  0  0  0
    2.8579    0.0000    0.0000 C   0  0  0  0  0  0  0  0  0  0  0  0
    3.5724   -0.4125    0.0000 C   0  0  0  0  0  0  0  0  0  0  0  0
    3.5724   -1.2375    0.0000 N   0  0  0  0  0  0  0  0  0  0  0  0
    2.8579   -1.6500    0.0000 C   0  0  0  0  0  0  0  0  0  0  0  0
    2.8579   -2.4750    0.0000 C   0  0  0  0  0  0  0  0  0  0  0  0
    2.8579   -3.3000    0.0000 F   0  0  0  0  0  0  0  0  0  0  0  0
    2.0329   -2.4750    0.0000 F   0  0  0  0  0  0  0  0  0  0  0  0
    3.6829   -2.4750    0.0000 F   0  0  0  0  0  0  0  0  0  0  0  0
   -0.7145   -2.8875    0.0000 C   0  0  0  0  0  0  0  0  0  0  0  0
   -1.4289   -2.4750    0.0000 O   0  0  0  0  0  0  0  0  0  0  0  0
   -0.7145   -3.7125    0.0000 O   0  0  0  0  0  0  0  0  0  0  0  0
  1  2  1  0  0  0  0
  2  3  1  0  0  0  0
  3  4  1  0  0  0  0
  4  5  2  0  0  0  0
  5  6  1  0  0  0  0
  5  7  1  0  0  0  0
  7  8  2  0  0  0  0
  8  9  1  0  0  0  0
  9 10  2  0  0  0  0
  4 10  1  0  0  0  0
 10 11  1  0  0  0  0
 11 12  2  0  0  0  0
 12 13  1  0  0  0  0
 13 14  2  0  0  0  0
 14 15  1  0  0  0  0
 15 16  2  0  0  0  0
 11 16  1  0  0  0  0
 16 17  1  0  0  0  0
 17 18  1  0  0  0  0
 17 19  1  0  0  0  0
 17 20  1  0  0  0  0
  7 21  1  0  0  0  0
 21 22  1  0  0  0  0
 21 23  2  0  0  0  0
M  END
> <ID>
CPD_5477

$$$$
CPD_5482
  Mrv1822 09091914012D          

 21 22  0  0  0  0            999 V2000
    0.7145   -0.4125    0.0000 C   0  0  0  0  0  0  0  0  0  0  0  0
    0.7145   -1.2375    0.0000 C   0  0  0  0  0  0  0  0  0  0  0  0
    1.3819   -1.7224    0.0000 C   0  0  0  0  0  0  0  0  0  0  0  0
    1.1270   -2.5070    0.0000 C   0  0  0  0  0  0  0  0  0  0  0  0
    0.3020   -2.5070    0.0000 N   0  0  0  0  0  0  0  0  0  0  0  0
    0.0470   -1.7224    0.0000 N   0  0  0  0  0  0  0  0  0  0  0  0
   -0.7376   -1.4675    0.0000 C   0  0  0  0  0  0  0  0  0  0  0  0
   -1.3507   -2.0195    0.0000 C   0  0  0  0  0  0  0  0  0  0  0  0
   -2.1353   -1.7646    0.0000 C   0  0  0  0  0  0  0  0  0  0  0  0
   -2.7484   -2.3166    0.0000 O   0  0  0  0  0  0  0  0  0  0  0  0
   -2.3068   -0.9576    0.0000 O   0  0  0  0  0  0  0  0  0  0  0  0
    2.1665   -1.4675    0.0000 C   0  0  0  0  0  0  0  0  0  0  0  0
    2.3381   -0.6605    0.0000 N   0  0  0  0  0  0  0  0  0  0  0  0
    3.1227   -0.4056    0.0000 C   0  0  0  0  0  0  0  0  0  0  0  0
    3.7358   -0.9576    0.0000 C   0  0  0  0  0  0  0  0  0  0  0  0
    3.5642   -1.7646    0.0000 N   0  0  0  0  0  0  0  0  0  0  0  0
    2.7796   -2.0195    0.0000 C   0  0  0  0  0  0  0  0  0  0  0  0
    2.6081   -2.8265    0.0000 C   0  0  0  0  0  0  0  0  0  0  0  0
    2.4366   -3.6335    0.0000 F   0  0  0  0  0  0  0  0  0  0  0  0
    1.8011   -2.6550    0.0000 F   0  0  0  0  0  0  0  0  0  0  0  0
    3.4151   -2.9980    0.0000 F   0  0  0  0  0  0  0  0  0  0  0  0
  1  2  1  0  0  0  0
  2  3  2  0  0  0  0
  3  4  1  0  0  0  0
  4  5  2  0  0  0  0
  5  6  1  0  0  0  0
  2  6  1  0  0  0  0
  6  7  1  0  0  0  0
  7  8  1  0  0  0  0
  8  9  1  0  0  0  0
  9 10  1  0  0  0  0
  9 11  2  0  0  0  0
  3 12  1  0  0  0  0
 12 13  2  0  0  0  0
 13 14  1  0  0  0  0
 14 15  2  0  0  0  0
 15 16  1  0  0  0  0
 16 17  2  0  0  0  0
 12 17  1  0  0  0  0
 17 18  1  0  0  0  0
 18 19  1  0  0  0  0
 18 20  1  0  0  0  0
 18 21  1  0  0  0  0
M  END
> <ID>
CPD_5482

$$$$
CPD_5487
  Mrv1822 09091914012D          

 25 27  0  0  0  0            999 V2000
    2.7512    0.6402    0.0000 C   0  0  0  0  0  0  0  0  0  0  0  0
    2.7512   -0.1848    0.0000 C   0  0  0  0  0  0  0  0  0  0  0  0
    2.0837   -0.6697    0.0000 N   0  0  0  0  0  0  0  0  0  0  0  0
    2.3387   -1.4544    0.0000 N   0  0  0  0  0  0  0  0  0  0  0  0
    3.1637   -1.4544    0.0000 C   0  0  0  0  0  0  0  0  0  0  0  0
    3.6486   -2.1218    0.0000 N   0  0  0  0  0  0  0  0  0  0  0  0
    3.4186   -0.6697    0.0000 C   0  0  0  0  0  0  0  0  0  0  0  0
    4.2032   -0.4148    0.0000 C   0  0  0  0  0  0  0  0  0  0  0  0
    4.9879   -0.1599    0.0000 N   0  0  0  0  0  0  0  0  0  0  0  0
    1.8538   -2.1218    0.0000 C   0  0  0  0  0  0  0  0  0  0  0  0
    1.0333   -2.0356    0.0000 C   0  0  0  0  0  0  0  0  0  0  0  0
    0.5484   -2.7030    0.0000 C   0  0  0  0  0  0  0  0  0  0  0  0
    0.8839   -3.4567    0.0000 C   0  0  0  0  0  0  0  0  0  0  0  0
    0.3990   -4.1241    0.0000 Cl  0  0  0  0  0  0  0  0  0  0  0  0
    1.7044   -3.5429    0.0000 C   0  0  0  0  0  0  0  0  0  0  0  0
    2.1893   -2.8755    0.0000 C   0  0  0  0  0  0  0  0  0  0  0  0
    0.6977   -1.2819    0.0000 C   0  0  0  0  0  0  0  0  0  0  0  0
   -0.1228   -1.1957    0.0000 C   0  0  0  0  0  0  0  0  0  0  0  0
   -0.6077   -1.8631    0.0000 N   0  0  0  0  0  0  0  0  0  0  0  0
   -0.4583   -0.4420    0.0000 C   0  0  0  0  0  0  0  0  0  0  0  0
    0.0266    0.2255    0.0000 C   0  0  0  0  0  0  0  0  0  0  0  0
   -0.3090    0.9791    0.0000 Br  0  0  0  0  0  0  0  0  0  0  0  0
    0.8471    0.1392    0.0000 C   0  0  0  0  0  0  0  0  0  0  0  0
    1.3320    0.8067    0.0000 F   0  0  0  0  0  0  0  0  0  0  0  0
    1.1826   -0.6145    0.0000 C   0  0  0  0  0  0  0  0  0  0  0  0
  1  2  1  0  0  0  0
  2  3  2  0  0  0  0
  3  4  1  0  0  0  0
  4  5  1  0  0  0  0
  5  6  1  0  0  0  0
  5  7  2  0  0  0  0
  2  7  1  0  0  0  0
  7  8  1  0  0  0  0
  8  9  3  0  0  0  0
  4 10  1  0  0  0  0
 10 11  2  0  0  0  0
 11 12  1  0  0  0  0
 12 13  2  0  0  0  0
 13 14  1  0  0  0  0
 13 15  1  0  0  0  0
 15 16  2  0  0  0  0
 10 16  1  0  0  0  0
 11 17  1  0  0  0  0
 17 18  2  0  0  0  0
 18 19  1  0  0  0  0
 18 20  1  0  0  0  0
 20 21  2  0  0  0  0
 21 22  1  0  0  0  0
 21 23  1  0  0  0  0
 23 24  1  0  0  0  0
 23 25  2  0  0  0  0
 17 25  1  0  0  0  0
M  END
> <ID>
CPD_5487

$$$$
CPD_5492
  Mrv1822 09091914012D          

 26 29  0  0  0  0            999 V2000
   -3.4783   -3.6880    0.0000 N   0  0  0  0  0  0  0  0  0  0  0  0
   -2.7247   -4.0235    0.0000 C   0  0  0  0  0  0  0  0  0  0  0  0
   -2.0572   -3.5386    0.0000 C   0  0  0  0  0  0  0  0  0  0  0  0
   -1.3036   -3.8742    0.0000 C   0  0  0  0  0  0  0  0  0  0  0  0
   -1.2173   -4.6946    0.0000 C   0  0  0  0  0  0  0  0  0  0  0  0
   -0.4636   -5.0302    0.0000 F   0  0  0  0  0  0  0  0  0  0  0  0
   -1.8848   -5.1796    0.0000 C   0  0  0  0  0  0  0  0  0  0  0  0
   -1.7985   -6.0000    0.0000 Br  0  0  0  0  0  0  0  0  0  0  0  0
   -2.6384   -4.8440    0.0000 C   0  0  0  0  0  0  0  0  0  0  0  0
   -2.1435   -2.7181    0.0000 C   0  0  0  0  0  0  0  0  0  0  0  0
   -2.8579   -2.3056    0.0000 N   0  0  0  0  0  0  0  0  0  0  0  0
   -2.6864   -1.4986    0.0000 C   0  0  0  0  0  0  0  0  0  0  0  0
   -1.8659   -1.4124    0.0000 C   0  0  0  0  0  0  0  0  0  0  0  0
   -1.4534   -0.6979    0.0000 C   0  0  0  0  0  0  0  0  0  0  0  0
   -0.6284   -0.6979    0.0000 N   0  0  0  0  0  0  0  0  0  0  0  0
   -0.1435   -1.3654    0.0000 C   0  0  0  0  0  0  0  0  0  0  0  0
   -0.3984   -2.1500    0.0000 O   0  0  0  0  0  0  0  0  0  0  0  0
    0.6411   -1.1104    0.0000 C   0  0  0  0  0  0  0  0  0  0  0  0
    0.6411   -0.2854    0.0000 C   0  0  0  0  0  0  0  0  0  0  0  0
    1.3556    0.1271    0.0000 C   0  0  0  0  0  0  0  0  0  0  0  0
    2.0701   -0.2854    0.0000 C   0  0  0  0  0  0  0  0  0  0  0  0
    2.0701   -1.1104    0.0000 C   0  0  0  0  0  0  0  0  0  0  0  0
    1.3556   -1.5229    0.0000 C   0  0  0  0  0  0  0  0  0  0  0  0
   -0.1435   -0.0305    0.0000 C   0  0  0  0  0  0  0  0  0  0  0  0
   -0.3984    0.7541    0.0000 O   0  0  0  0  0  0  0  0  0  0  0  0
   -1.5304   -2.1661    0.0000 S   0  0  0  0  0  0  0  0  0  0  0  0
  1  2  1  0  0  0  0
  2  3  2  0  0  0  0
  3  4  1  0  0  0  0
  4  5  2  0  0  0  0
  5  6  1  0  0  0  0
  5  7  1  0  0  0  0
  7  8  1  0  0  0  0
  7  9  2  0  0  0  0
  2  9  1  0  0  0  0
  3 10  1  0  0  0  0
 10 11  2  0  0  0  0
 11 12  1  0  0  0  0
 12 13  2  0  0  0  0
 13 14  1  0  0  0  0
 14 15  1  0  0  0  0
 15 16  1  0  0  0  0
 16 17  2  0  0  0  0
 16 18  1  0  0  0  0
 18 19  2  0  0  0  0
 19 20  1  0  0  0  0
 20 21  2  0  0  0  0
 21 22  1  0  0  0  0
 22 23  2  0  0  0  0
 18 23  1  0  0  0  0
 19 24  1  0  0  0  0
 15 24  1  0  0  0  0
 24 25  2  0  0  0  0
 13 26  1  0  0  0  0
 10 26  1  0  0  0  0
M  END
> <ID>
CPD_5492

$$$$
CPD_5497
  Mrv1822 09091914012D          

 20 22  0  0  0  0            999 V2000
    2.1434    6.7661    0.0000 N   0  0  0  0  0  0  0  0  0  0  0  0
    1.4289    7.1786    0.0000 C   0  0  0  0  0  0  0  0  0  0  0  0
    0.7145    6.7661    0.0000 C   0  0  0  0  0  0  0  0  0  0  0  0
   -0.0000    7.1786    0.0000 C   0  0  0  0  0  0  0  0  0  0  0  0
   -0.0000    8.0036    0.0000 C   0  0  0  0  0  0  0  0  0  0  0  0
   -0.7145    8.4161    0.0000 F   0  0  0  0  0  0  0  0  0  0  0  0
    0.7145    8.4161    0.0000 C   0  0  0  0  0  0  0  0  0  0  0  0
    0.7145    9.2411    0.0000 Br  0  0  0  0  0  0  0  0  0  0  0  0
    1.4289    8.0036    0.0000 C   0  0  0  0  0  0  0  0  0  0  0  0
    0.7145    5.9411    0.0000 C   0  0  0  0  0  0  0  0  0  0  0  0
    1.4289    5.5286    0.0000 N   0  0  0  0  0  0  0  0  0  0  0  0
    1.4289    4.7036    0.0000 N   0  0  0  0  0  0  0  0  0  0  0  0
    0.7145    4.2911    0.0000 C   0  0  0  0  0  0  0  0  0  0  0  0
    0.0000    4.7036    0.0000 C   0  0  0  0  0  0  0  0  0  0  0  0
   -0.0000    5.5286    0.0000 C   0  0  0  0  0  0  0  0  0  0  0  0
    0.7145    3.4661    0.0000 C   0  0  0  0  0  0  0  0  0  0  0  0
    1.3819    2.9812    0.0000 C   0  0  0  0  0  0  0  0  0  0  0  0
    1.1270    2.1965    0.0000 C   0  0  0  0  0  0  0  0  0  0  0  0
    0.3020    2.1965    0.0000 C   0  0  0  0  0  0  0  0  0  0  0  0
    0.0470    2.9812    0.0000 O   0  0  0  0  0  0  0  0  0  0  0  0
  1  2  1  0  0  0  0
  2  3  2  0  0  0  0
  3  4  1  0  0  0  0
  4  5  2  0  0  0  0
  5  6  1  0  0  0  0
  5  7  1  0  0  0  0
  7  8  1  0  0  0  0
  7  9  2  0  0  0  0
  2  9  1  0  0  0  0
  3 10  1  0  0  0  0
 10 11  2  0  0  0  0
 11 12  1  0  0  0  0
 12 13  2  0  0  0  0
 13 14  1  0  0  0  0
 14 15  2  0  0  0  0
 10 15  1  0  0  0  0
 13 16  1  0  0  0  0
 16 17  2  0  0  0  0
 17 18  1  0  0  0  0
 18 19  2  0  0  0  0
 19 20  1  0  0  0  0
 16 20  1  0  0  0  0
M  END
> <ID>
CPD_5497

$$$$
CPD_5502
  Mrv1822 09091914012D          

 24 26  0  0  0  0            999 V2000
    1.4289   -4.1250    0.0000 N   0  0  0  0  0  0  0  0  0  0  0  0
    2.1434   -3.7125    0.0000 C   0  0  0  0  0  0  0  0  0  0  0  0
    2.8579   -4.1250    0.0000 C   0  0  0  0  0  0  0  0  0  0  0  0
    3.5724   -3.7125    0.0000 N   0  0  0  0  0  0  0  0  0  0  0  0
    4.2868   -4.1250    0.0000 C   0  0  0  0  0  0  0  0  0  0  0  0
    5.0013   -3.7125    0.0000 C   0  0  0  0  0  0  0  0  0  0  0  0
    5.0013   -2.8875    0.0000 C   0  0  0  0  0  0  0  0  0  0  0  0
    5.7158   -2.4750    0.0000 C   0  0  0  0  0  0  0  0  0  0  0  0
    6.4302   -2.8875    0.0000 C   0  0  0  0  0  0  0  0  0  0  0  0
    6.4302   -3.7125    0.0000 C   0  0  0  0  0  0  0  0  0  0  0  0
    5.7158   -4.1250    0.0000 C   0  0  0  0  0  0  0  0  0  0  0  0
    7.1447   -4.1250    0.0000 C   0  0  0  0  0  0  0  0  0  0  0  0
    7.8592   -3.7125    0.0000 C   0  0  0  0  0  0  0  0  0  0  0  0
    8.5737   -4.1250    0.0000 C   0  0  0  0  0  0  0  0  0  0  0  0
    8.5737   -4.9500    0.0000 C   0  0  0  0  0  0  0  0  0  0  0  0
    7.8592   -5.3625    0.0000 C   0  0  0  0  0  0  0  0  0  0  0  0
    7.1447   -4.9500    0.0000 C   0  0  0  0  0  0  0  0  0  0  0  0
    9.2881   -3.7125    0.0000 C   0  0  0  0  0  0  0  0  0  0  0  0
    9.3744   -2.8920    0.0000 C   0  0  0  0  0  0  0  0  0  0  0  0
   10.1813   -2.7205    0.0000 S   0  0  0  0  0  0  0  0  0  0  0  0
   10.5938   -3.4350    0.0000 C   0  0  0  0  0  0  0  0  0  0  0  0
   11.4143   -3.5212    0.0000 C   0  0  0  0  0  0  0  0  0  0  0  0
   11.8992   -2.8538    0.0000 N   0  0  0  0  0  0  0  0  0  0  0  0
   10.0418   -4.0481    0.0000 N   0  0  0  0  0  0  0  0  0  0  0  0
  1  2  1  0  0  0  0
  2  3  1  0  0  0  0
  3  4  1  0  0  0  0
  4  5  1  0  0  0  0
  5  6  1  0  0  0  0
  6  7  2  0  0  0  0
  7  8  1  0  0  0  0
  8  9  2  0  0  0  0
  9 10  1  0  0  0  0
 10 11  2  0  0  0  0
  6 11  1  0  0  0  0
 10 12  1  0  0  0  0
 12 13  2  0  0  0  0
 13 14  1  0  0  0  0
 14 15  2  0  0  0  0
 15 16  1  0  0  0  0
 16 17  2  0  0  0  0
 12 17  1  0  0  0  0
 14 18  1  0  0  0  0
 18 19  2  0  0  0  0
 19 20  1  0  0  0  0
 20 21  1  0  0  0  0
 21 22  1  0  0  0  0
 22 23  1  0  0  0  0
 21 24  2  0  0  0  0
 18 24  1  0  0  0  0
M  END
> <ID>
CPD_5502

$$$$
CPD_5507
  Mrv1822 09091914012D          

 25 27  0  0  0  0            999 V2000
    2.2501    3.5277    0.0000 C   0  0  0  0  0  0  0  0  0  0  0  0
    2.2501    4.3527    0.0000 O   0  0  0  0  0  0  0  0  0  0  0  0
    1.5356    4.7652    0.0000 C   0  0  0  0  0  0  0  0  0  0  0  0
    0.8212    4.3527    0.0000 C   0  0  0  0  0  0  0  0  0  0  0  0
    0.1067    4.7652    0.0000 C   0  0  0  0  0  0  0  0  0  0  0  0
    0.1067    5.5902    0.0000 C   0  0  0  0  0  0  0  0  0  0  0  0
    0.8212    6.0027    0.0000 C   0  0  0  0  0  0  0  0  0  0  0  0
    1.5356    5.5902    0.0000 C   0  0  0  0  0  0  0  0  0  0  0  0
    2.2501    6.0027    0.0000 N   0  0  0  0  0  0  0  0  0  0  0  0
    2.9646    5.5902    0.0000 C   0  0  0  0  0  0  0  0  0  0  0  0
    2.9646    4.7652    0.0000 C   0  0  0  0  0  0  0  0  0  0  0  0
    3.6791    6.0027    0.0000 O   0  0  0  0  0  0  0  0  0  0  0  0
   -0.6078    4.3527    0.0000 C   0  0  0  0  0  0  0  0  0  0  0  0
   -0.6078    3.5277    0.0000 C   0  0  0  0  0  0  0  0  0  0  0  0
   -1.3222    3.1152    0.0000 C   0  0  0  0  0  0  0  0  0  0  0  0
   -2.0367    3.5277    0.0000 C   0  0  0  0  0  0  0  0  0  0  0  0
   -2.0367    4.3527    0.0000 C   0  0  0  0  0  0  0  0  0  0  0  0
   -1.3222    4.7652    0.0000 C   0  0  0  0  0  0  0  0  0  0  0  0
   -1.3222    2.2902    0.0000 C   0  0  0  0  0  0  0  0  0  0  0  0
   -0.6548    1.8053    0.0000 C   0  0  0  0  0  0  0  0  0  0  0  0
   -0.9097    1.0206    0.0000 S   0  0  0  0  0  0  0  0  0  0  0  0
   -1.7347    1.0206    0.0000 C   0  0  0  0  0  0  0  0  0  0  0  0
   -2.2197    0.3532    0.0000 C   0  0  0  0  0  0  0  0  0  0  0  0
   -1.8841   -0.4005    0.0000 N   0  0  0  0  0  0  0  0  0  0  0  0
   -1.9897    1.8053    0.0000 N   0  0  0  0  0  0  0  0  0  0  0  0
  1  2  1  0  0  0  0
  2  3  1  0  0  0  0
  3  4  2  0  0  0  0
  4  5  1  0  0  0  0
  5  6  2  0  0  0  0
  6  7  1  0  0  0  0
  7  8  2  0  0  0  0
  3  8  1  0  0  0  0
  8  9  1  0  0  0  0
  9 10  1  0  0  0  0
 10 11  1  0  0  0  0
 10 12  2  0  0  0  0
  5 13  1  0  0  0  0
 13 14  2  0  0  0  0
 14 15  1  0  0  0  0
 15 16  2  0  0  0  0
 16 17  1  0  0  0  0
 17 18  2  0  0  0  0
 13 18  1  0  0  0  0
 15 19  1  0  0  0  0
 19 20  2  0  0  0  0
 20 21  1  0  0  0  0
 21 22  1  0  0  0  0
 22 23  1  0  0  0  0
 23 24  1  0  0  0  0
 22 25  2  0  0  0  0
 19 25  1  0  0  0  0
M  END
> <ID>
CPD_5507

$$$$
CPD_5512
  Mrv1822 09091914012D          

 24 26  0  0  0  0            999 V2000
    2.0367   -1.2991    0.0000 N   0  0  0  0  0  0  0  0  0  0  0  0
    2.7512   -1.7116    0.0000 C   0  0  0  0  0  0  0  0  0  0  0  0
    2.7512   -2.5366    0.0000 C   0  0  0  0  0  0  0  0  0  0  0  0
    3.4186   -3.0215    0.0000 N   0  0  0  0  0  0  0  0  0  0  0  0
    3.1637   -3.8062    0.0000 C   0  0  0  0  0  0  0  0  0  0  0  0
    2.3387   -3.8062    0.0000 C   0  0  0  0  0  0  0  0  0  0  0  0
    2.0837   -3.0215    0.0000 S   0  0  0  0  0  0  0  0  0  0  0  0
    3.6486   -4.4736    0.0000 C   0  0  0  0  0  0  0  0  0  0  0  0
    4.4691   -4.3874    0.0000 C   0  0  0  0  0  0  0  0  0  0  0  0
    4.9540   -5.0548    0.0000 C   0  0  0  0  0  0  0  0  0  0  0  0
    4.6184   -5.8085    0.0000 C   0  0  0  0  0  0  0  0  0  0  0  0
    3.7980   -5.8947    0.0000 C   0  0  0  0  0  0  0  0  0  0  0  0
    3.3130   -5.2273    0.0000 C   0  0  0  0  0  0  0  0  0  0  0  0
    3.4624   -6.6484    0.0000 C   0  0  0  0  0  0  0  0  0  0  0  0
    3.9473   -7.3158    0.0000 C   0  0  0  0  0  0  0  0  0  0  0  0
    3.6118   -8.0695    0.0000 C   0  0  0  0  0  0  0  0  0  0  0  0
    4.0967   -8.7369    0.0000 C   0  0  0  0  0  0  0  0  0  0  0  0
    3.7611   -9.4906    0.0000 C   0  0  0  0  0  0  0  0  0  0  0  0
    4.2461  -10.1580    0.0000 N   0  0  0  0  0  0  0  0  0  0  0  0
    2.9407   -9.5768    0.0000 N   0  0  0  0  0  0  0  0  0  0  0  0
    2.7913   -8.1557    0.0000 C   0  0  0  0  0  0  0  0  0  0  0  0
    2.3064   -7.4883    0.0000 C   0  0  0  0  0  0  0  0  0  0  0  0
    2.6419   -6.7346    0.0000 C   0  0  0  0  0  0  0  0  0  0  0  0
    2.1570   -6.0672    0.0000 Cl  0  0  0  0  0  0  0  0  0  0  0  0
  1  2  1  0  0  0  0
  2  3  1  0  0  0  0
  3  4  2  0  0  0  0
  4  5  1  0  0  0  0
  5  6  2  0  0  0  0
  6  7  1  0  0  0  0
  3  7  1  0  0  0  0
  5  8  1  0  0  0  0
  8  9  2  0  0  0  0
  9 10  1  0  0  0  0
 10 11  2  0  0  0  0
 11 12  1  0  0  0  0
 12 13  2  0  0  0  0
  8 13  1  0  0  0  0
 12 14  1  0  0  0  0
 14 15  2  0  0  0  0
 15 16  1  0  0  0  0
 16 17  1  0  0  0  0
 17 18  1  0  0  0  0
 18 19  1  0  0  0  0
 18 20  2  0  0  0  0
 16 21  2  0  0  0  0
 21 22  1  0  0  0  0
 22 23  2  0  0  0  0
 14 23  1  0  0  0  0
 23 24  1  0  0  0  0
M  END
> <ID>
CPD_5512

$$$$
CPD_5517
  Mrv1822 09091914012D          

 39 44  0  0  0  0            999 V2000
   -3.5724   -3.7125    0.0000 C   0  0  0  0  0  0  0  0  0  0  0  0
   -2.8579   -4.1250    0.0000 C   0  0  0  0  0  0  0  0  0  0  0  0
   -2.1434   -3.7125    0.0000 N   0  0  0  0  0  0  0  0  0  0  0  0
   -1.4289   -4.1250    0.0000 C   0  0  0  0  0  0  0  0  0  0  0  0
   -0.7145   -3.7125    0.0000 C   0  0  0  0  0  0  0  0  0  0  0  0
    0.0000   -4.1250    0.0000 C   0  0  0  0  0  0  0  0  0  0  0  0
   -0.0000   -4.9500    0.0000 C   0  0  0  0  0  0  0  0  0  0  0  0
   -0.7145   -5.3625    0.0000 C   0  0  0  0  0  0  0  0  0  0  0  0
   -1.4289   -4.9500    0.0000 C   0  0  0  0  0  0  0  0  0  0  0  0
   -2.1434   -2.8875    0.0000 C   0  0  0  0  0  0  0  0  0  0  0  0
   -2.8579   -2.4750    0.0000 C   0  0  0  0  0  0  0  0  0  0  0  0
   -3.6425   -2.7299    0.0000 C   0  0  0  0  0  0  0  0  0  0  0  0
   -4.1274   -2.0625    0.0000 N   0  0  0  0  0  0  0  0  0  0  0  0
   -3.6425   -1.3951    0.0000 N   0  0  0  0  0  0  0  0  0  0  0  0
   -2.8579   -1.6500    0.0000 C   0  0  0  0  0  0  0  0  0  0  0  0
   -2.1434   -1.2375    0.0000 N   0  0  0  0  0  0  0  0  0  0  0  0
   -1.4289   -1.6500    0.0000 C   0  0  0  0  0  0  0  0  0  0  0  0
   -1.4289   -2.4750    0.0000 N   0  0  0  0  0  0  0  0  0  0  0  0
   -0.7145   -1.2375    0.0000 C   0  0  0  0  0  0  0  0  0  0  0  0
    0.0000   -1.6500    0.0000 C   0  0  0  0  0  0  0  0  0  0  0  0
    0.7145   -1.2375    0.0000 C   0  0  0  0  0  0  0  0  0  0  0  0
    0.7145   -0.4125    0.0000 C   0  0  0  0  0  0  0  0  0  0  0  0
    1.4289   -0.0000    0.0000 N   0  0  0  0  0  0  0  0  0  0  0  0
    2.1434   -0.4125    0.0000 C   0  0  0  0  0  0  0  0  0  0  0  0
    2.8579   -0.0000    0.0000 O   0  0  0  0  0  0  0  0  0  0  0  0
    2.1434   -1.2375    0.0000 C   0  0  0  0  0  0  0  0  0  0  0  0
    2.8579   -1.6500    0.0000 S   0  0  0  0  0  0  0  0  0  0  0  0
    3.5724   -1.2375    0.0000 C   0  0  0  0  0  0  0  0  0  0  0  0
    4.2868   -1.6500    0.0000 C   0  0  0  0  0  0  0  0  0  0  0  0
    5.0013   -1.2375    0.0000 O   0  0  0  0  0  0  0  0  0  0  0  0
    1.4289   -1.6500    0.0000 C   0  0  0  0  0  0  0  0  0  0  0  0
    1.4289   -2.4750    0.0000 C   0  0  0  0  0  0  0  0  0  0  0  0
    2.1434   -2.8875    0.0000 C   0  0  0  0  0  0  0  0  0  0  0  0
    2.1434   -3.7125    0.0000 C   0  0  0  0  0  0  0  0  0  0  0  0
    1.4289   -4.1250    0.0000 C   0  0  0  0  0  0  0  0  0  0  0  0
    0.7145   -3.7125    0.0000 C   0  0  0  0  0  0  0  0  0  0  0  0
    0.7145   -2.8875    0.0000 C   0  0  0  0  0  0  0  0  0  0  0  0
    0.0000   -0.0000    0.0000 C   0  0  0  0  0  0  0  0  0  0  0  0
   -0.7145   -0.4125    0.0000 C   0  0  0  0  0  0  0  0  0  0  0  0
  1  2  1  0  0  0  0
  2  3  1  0  0  0  0
  3  4  1  0  0  0  0
  4  5  2  0  0  0  0
  5  6  1  0  0  0  0
  6  7  2  0  0  0  0
  7  8  1  0  0  0  0
  8  9  2  0  0  0  0
  4  9  1  0  0  0  0
  3 10  1  0  0  0  0
 10 11  2  0  0  0  0
 11 12  1  0  0  0  0
 12 13  2  0  0  0  0
 13 14  1  0  0  0  0
 14 15  1  0  0  0  0
 11 15  1  0  0  0  0
 15 16  2  0  0  0  0
 16 17  1  0  0  0  0
 17 18  2  0  0  0  0
 10 18  1  0  0  0  0
 17 19  1  0  0  0  0
 19 20  2  0  0  0  0
 20 21  1  0  0  0  0
 21 22  2  0  0  0  0
 22 23  1  0  0  0  0
 23 24  1  0  0  0  0
 24 25  2  0  0  0  0
 24 26  1  0  0  0  0
 26 27  1  0  0  0  0
 27 28  1  0  0  0  0
 28 29  1  0  0  0  0
 29 30  1  0  0  0  0
 26 31  2  0  0  0  0
 21 31  1  0  0  0  0
 31 32  1  0  0  0  0
 32 33  2  0  0  0  0
 33 34  1  0  0  0  0
 34 35  2  0  0  0  0
 35 36  1  0  0  0  0
 36 37  2  0  0  0  0
 32 37  1  0  0  0  0
 22 38  1  0  0  0  0
 38 39  2  0  0  0  0
 19 39  1  0  0  0  0
M  END
> <ID>
CPD_5517

$$$$
CPD_5522
  Mrv1822 09091914012D          

 32 36  0  0  0  0            999 V2000
   -0.7145   -1.2375    0.0000 C   0  0  0  0  0  0  0  0  0  0  0  0
    0.0000   -1.6500    0.0000 C   0  0  0  0  0  0  0  0  0  0  0  0
    0.7145   -1.2375    0.0000 N   0  0  0  0  0  0  0  0  0  0  0  0
    1.4289   -1.6500    0.0000 C   0  0  0  0  0  0  0  0  0  0  0  0
    2.1434   -1.2375    0.0000 C   0  0  0  0  0  0  0  0  0  0  0  0
    2.8579   -1.6500    0.0000 C   0  0  0  0  0  0  0  0  0  0  0  0
    2.8579   -2.4750    0.0000 C   0  0  0  0  0  0  0  0  0  0  0  0
    2.1434   -2.8875    0.0000 C   0  0  0  0  0  0  0  0  0  0  0  0
    1.4289   -2.4750    0.0000 C   0  0  0  0  0  0  0  0  0  0  0  0
    0.7145   -0.4125    0.0000 C   0  0  0  0  0  0  0  0  0  0  0  0
    0.0000    0.0000    0.0000 C   0  0  0  0  0  0  0  0  0  0  0  0
   -0.7846   -0.2549    0.0000 C   0  0  0  0  0  0  0  0  0  0  0  0
   -1.2695    0.4125    0.0000 N   0  0  0  0  0  0  0  0  0  0  0  0
   -0.7846    1.0799    0.0000 N   0  0  0  0  0  0  0  0  0  0  0  0
    0.0000    0.8250    0.0000 C   0  0  0  0  0  0  0  0  0  0  0  0
    0.7145    1.2375    0.0000 N   0  0  0  0  0  0  0  0  0  0  0  0
    1.4289    0.8250    0.0000 C   0  0  0  0  0  0  0  0  0  0  0  0
    1.4289    0.0000    0.0000 N   0  0  0  0  0  0  0  0  0  0  0  0
    2.1434    1.2375    0.0000 C   0  0  0  0  0  0  0  0  0  0  0  0
    2.1434    2.0625    0.0000 N   0  0  0  0  0  0  0  0  0  0  0  0
    2.8579    2.4750    0.0000 N   0  0  0  0  0  0  0  0  0  0  0  0
    3.5724    2.0625    0.0000 C   0  0  0  0  0  0  0  0  0  0  0  0
    3.5724    1.2375    0.0000 C   0  0  0  0  0  0  0  0  0  0  0  0
    2.8579    0.8250    0.0000 C   0  0  0  0  0  0  0  0  0  0  0  0
    4.2868    2.4750    0.0000 C   0  0  0  0  0  0  0  0  0  0  0  0
    5.0013    2.0625    0.0000 O   0  0  0  0  0  0  0  0  0  0  0  0
    4.2868    3.3000    0.0000 N   0  0  0  0  0  0  0  0  0  0  0  0
    5.0013    3.7125    0.0000 C   0  0  0  0  0  0  0  0  0  0  0  0
    5.0013    4.5375    0.0000 C   0  0  0  0  0  0  0  0  0  0  0  0
    5.7158    4.9500    0.0000 C   0  0  0  0  0  0  0  0  0  0  0  0
    6.1283    5.6645    0.0000 C   0  0  0  0  0  0  0  0  0  0  0  0
    6.5408    4.9500    0.0000 C   0  0  0  0  0  0  0  0  0  0  0  0
  1  2  1  0  0  0  0
  2  3  1  0  0  0  0
  3  4  1  0  0  0  0
  4  5  2  0  0  0  0
  5  6  1  0  0  0  0
  6  7  2  0  0  0  0
  7  8  1  0  0  0  0
  8  9  2  0  0  0  0
  4  9  1  0  0  0  0
  3 10  1  0  0  0  0
 10 11  2  0  0  0  0
 11 12  1  0  0  0  0
 12 13  2  0  0  0  0
 13 14  1  0  0  0  0
 14 15  1  0  0  0  0
 11 15  1  0  0  0  0
 15 16  2  0  0  0  0
 16 17  1  0  0  0  0
 17 18  2  0  0  0  0
 10 18  1  0  0  0  0
 17 19  1  0  0  0  0
 19 20  2  0  0  0  0
 20 21  1  0  0  0  0
 21 22  2  0  0  0  0
 22 23  1  0  0  0  0
 23 24  2  0  0  0  0
 19 24  1  0  0  0  0
 22 25  1  0  0  0  0
 25 26  2  0  0  0  0
 25 27  1  0  0  0  0
 27 28  1  0  0  0  0
 28 29  1  0  0  0  0
 29 30  1  0  0  0  0
 30 31  1  0  0  0  0
 31 32  1  0  0  0  0
 30 32  1  0  0  0  0
M  END
> <ID>
CPD_5522

$$$$
CPD_5527
  Mrv1822 09091914012D          

 34 38  0  0  0  0            999 V2000
    9.0681    6.0604    0.0000 C   0  0  0  0  0  0  0  0  0  0  0  0
    8.3536    5.6479    0.0000 O   0  0  0  0  0  0  0  0  0  0  0  0
    8.3536    4.8229    0.0000 C   0  0  0  0  0  0  0  0  0  0  0  0
    9.0681    4.4104    0.0000 O   0  0  0  0  0  0  0  0  0  0  0  0
    7.6391    4.4104    0.0000 N   0  0  0  0  0  0  0  0  0  0  0  0
    7.6391    3.5854    0.0000 C   0  0  0  0  0  0  0  0  0  0  0  0
    6.9246    3.1729    0.0000 C   0  0  0  0  0  0  0  0  0  0  0  0
    6.2102    3.5854    0.0000 N   0  0  0  0  0  0  0  0  0  0  0  0
    6.2102    4.4104    0.0000 C   0  0  0  0  0  0  0  0  0  0  0  0
    6.9246    4.8229    0.0000 C   0  0  0  0  0  0  0  0  0  0  0  0
    5.4957    3.1729    0.0000 C   0  0  0  0  0  0  0  0  0  0  0  0
    5.4957    2.3479    0.0000 C   0  0  0  0  0  0  0  0  0  0  0  0
    4.7812    1.9354    0.0000 C   0  0  0  0  0  0  0  0  0  0  0  0
    4.0668    2.3479    0.0000 C   0  0  0  0  0  0  0  0  0  0  0  0
    4.0668    3.1729    0.0000 C   0  0  0  0  0  0  0  0  0  0  0  0
    4.7812    3.5854    0.0000 C   0  0  0  0  0  0  0  0  0  0  0  0
    3.3523    1.9354    0.0000 C   0  0  0  0  0  0  0  0  0  0  0  0
    3.3523    1.1104    0.0000 N   0  0  0  0  0  0  0  0  0  0  0  0
    2.6378    0.6979    0.0000 C   0  0  0  0  0  0  0  0  0  0  0  0
    2.6378   -0.1271    0.0000 N   0  0  0  0  0  0  0  0  0  0  0  0
    3.3523   -0.5396    0.0000 C   0  0  0  0  0  0  0  0  0  0  0  0
    3.3523   -1.3646    0.0000 C   0  0  0  0  0  0  0  0  0  0  0  0
    4.0668   -1.7771    0.0000 C   0  0  0  0  0  0  0  0  0  0  0  0
    4.0668   -2.6021    0.0000 C   0  0  0  0  0  0  0  0  0  0  0  0
    3.3523   -3.0146    0.0000 C   0  0  0  0  0  0  0  0  0  0  0  0
    2.6378   -2.6021    0.0000 C   0  0  0  0  0  0  0  0  0  0  0  0
    2.6378   -1.7771    0.0000 C   0  0  0  0  0  0  0  0  0  0  0  0
    1.9233    1.1104    0.0000 C   0  0  0  0  0  0  0  0  0  0  0  0
    1.1387    0.8555    0.0000 C   0  0  0  0  0  0  0  0  0  0  0  0
    0.6538    1.5229    0.0000 N   0  0  0  0  0  0  0  0  0  0  0  0
    1.1387    2.1904    0.0000 N   0  0  0  0  0  0  0  0  0  0  0  0
    0.8838    2.9750    0.0000 C   0  0  0  0  0  0  0  0  0  0  0  0
    1.9233    1.9354    0.0000 C   0  0  0  0  0  0  0  0  0  0  0  0
    2.6378    2.3479    0.0000 N   0  0  0  0  0  0  0  0  0  0  0  0
  1  2  1  0  0  0  0
  2  3  1  0  0  0  0
  3  4  2  0  0  0  0
  3  5  1  0  0  0  0
  5  6  1  0  0  0  0
  6  7  1  0  0  0  0
  7  8  1  0  0  0  0
  8  9  1  0  0  0  0
  9 10  1  0  0  0  0
  5 10  1  0  0  0  0
  8 11  1  0  0  0  0
 11 12  2  0  0  0  0
 12 13  1  0  0  0  0
 13 14  2  0  0  0  0
 14 15  1  0  0  0  0
 15 16  2  0  0  0  0
 11 16  1  0  0  0  0
 14 17  1  0  0  0  0
 17 18  2  0  0  0  0
 18 19  1  0  0  0  0
 19 20  1  0  0  0  0
 20 21  1  0  0  0  0
 21 22  1  0  0  0  0
 22 23  2  0  0  0  0
 23 24  1  0  0  0  0
 24 25  2  0  0  0  0
 25 26  1  0  0  0  0
 26 27  2  0  0  0  0
 22 27  1  0  0  0  0
 19 28  2  0  0  0  0
 28 29  1  0  0  0  0
 29 30  2  0  0  0  0
 30 31  1  0  0  0  0
 31 32  1  0  0  0  0
 31 33  1  0  0  0  0
 28 33  1  0  0  0  0
 33 34  2  0  0  0  0
 17 34  1  0  0  0  0
M  END
> <ID>
CPD_5527

$$$$
CPD_5532
  Mrv1822 09091914012D          

 30 33  0  0  0  0            999 V2000
    6.9246    5.6479    0.0000 C   0  0  0  0  0  0  0  0  0  0  0  0
    6.9246    4.8229    0.0000 C   0  0  0  0  0  0  0  0  0  0  0  0
    7.6391    4.4104    0.0000 C   0  0  0  0  0  0  0  0  0  0  0  0
    6.2102    4.4104    0.0000 C   0  0  0  0  0  0  0  0  0  0  0  0
    5.4957    4.8229    0.0000 O   0  0  0  0  0  0  0  0  0  0  0  0
    6.2102    3.5854    0.0000 N   0  0  0  0  0  0  0  0  0  0  0  0
    5.4957    3.1729    0.0000 C   0  0  0  0  0  0  0  0  0  0  0  0
    5.4957    2.3479    0.0000 C   0  0  0  0  0  0  0  0  0  0  0  0
    4.7812    1.9354    0.0000 C   0  0  0  0  0  0  0  0  0  0  0  0
    4.0668    2.3479    0.0000 C   0  0  0  0  0  0  0  0  0  0  0  0
    4.0668    3.1729    0.0000 C   0  0  0  0  0  0  0  0  0  0  0  0
    4.7812    3.5854    0.0000 C   0  0  0  0  0  0  0  0  0  0  0  0
    3.3523    1.9354    0.0000 C   0  0  0  0  0  0  0  0  0  0  0  0
    3.3523    1.1104    0.0000 N   0  0  0  0  0  0  0  0  0  0  0  0
    2.6378    0.6979    0.0000 C   0  0  0  0  0  0  0  0  0  0  0  0
    2.6378   -0.1271    0.0000 N   0  0  0  0  0  0  0  0  0  0  0  0
    3.3523   -0.5396    0.0000 C   0  0  0  0  0  0  0  0  0  0  0  0
    3.3523   -1.3646    0.0000 C   0  0  0  0  0  0  0  0  0  0  0  0
    4.0668   -1.7771    0.0000 C   0  0  0  0  0  0  0  0  0  0  0  0
    4.0668   -2.6021    0.0000 C   0  0  0  0  0  0  0  0  0  0  0  0
    3.3523   -3.0146    0.0000 C   0  0  0  0  0  0  0  0  0  0  0  0
    2.6378   -2.6021    0.0000 C   0  0  0  0  0  0  0  0  0  0  0  0
    2.6378   -1.7771    0.0000 C   0  0  0  0  0  0  0  0  0  0  0  0
    1.9233    1.1104    0.0000 C   0  0  0  0  0  0  0  0  0  0  0  0
    1.1387    0.8555    0.0000 C   0  0  0  0  0  0  0  0  0  0  0  0
    0.6538    1.5229    0.0000 N   0  0  0  0  0  0  0  0  0  0  0  0
    1.1387    2.1904    0.0000 N   0  0  0  0  0  0  0  0  0  0  0  0
    0.8838    2.9750    0.0000 C   0  0  0  0  0  0  0  0  0  0  0  0
    1.9233    1.9354    0.0000 C   0  0  0  0  0  0  0  0  0  0  0  0
    2.6378    2.3479    0.0000 N   0  0  0  0  0  0  0  0  0  0  0  0
  1  2  1  0  0  0  0
  2  3  1  0  0  0  0
  2  4  1  0  0  0  0
  4  5  2  0  0  0  0
  4  6  1  0  0  0  0
  6  7  1  0  0  0  0
  7  8  2  0  0  0  0
  8  9  1  0  0  0  0
  9 10  2  0  0  0  0
 10 11  1  0  0  0  0
 11 12  2  0  0  0  0
  7 12  1  0  0  0  0
 10 13  1  0  0  0  0
 13 14  2  0  0  0  0
 14 15  1  0  0  0  0
 15 16  1  0  0  0  0
 16 17  1  0  0  0  0
 17 18  1  0  0  0  0
 18 19  2  0  0  0  0
 19 20  1  0  0  0  0
 20 21  2  0  0  0  0
 21 22  1  0  0  0  0
 22 23  2  0  0  0  0
 18 23  1  0  0  0  0
 15 24  2  0  0  0  0
 24 25  1  0  0  0  0
 25 26  2  0  0  0  0
 26 27  1  0  0  0  0
 27 28  1  0  0  0  0
 27 29  1  0  0  0  0
 24 29  1  0  0  0  0
 29 30  2  0  0  0  0
 13 30  1  0  0  0  0
M  END
> <ID>
CPD_5532

$$$$
CPD_5537
  Mrv1822 09091914012D          

 33 37  0  0  0  0            999 V2000
    0.8838   -2.1500    0.0000 C   0  0  0  0  0  0  0  0  0  0  0  0
    1.1387   -1.3654    0.0000 N   0  0  0  0  0  0  0  0  0  0  0  0
    0.6538   -0.6979    0.0000 N   0  0  0  0  0  0  0  0  0  0  0  0
    1.1387   -0.0305    0.0000 C   0  0  0  0  0  0  0  0  0  0  0  0
    1.9233   -0.2854    0.0000 C   0  0  0  0  0  0  0  0  0  0  0  0
    2.6378    0.1271    0.0000 C   0  0  0  0  0  0  0  0  0  0  0  0
    2.6378    0.9521    0.0000 N   0  0  0  0  0  0  0  0  0  0  0  0
    1.9233    1.3646    0.0000 C   0  0  0  0  0  0  0  0  0  0  0  0
    1.9233    2.1896    0.0000 C   0  0  0  0  0  0  0  0  0  0  0  0
    1.2089    2.6021    0.0000 C   0  0  0  0  0  0  0  0  0  0  0  0
    1.2089    3.4271    0.0000 C   0  0  0  0  0  0  0  0  0  0  0  0
    1.9233    3.8396    0.0000 C   0  0  0  0  0  0  0  0  0  0  0  0
    2.6378    3.4271    0.0000 C   0  0  0  0  0  0  0  0  0  0  0  0
    2.6378    2.6021    0.0000 C   0  0  0  0  0  0  0  0  0  0  0  0
    3.3523   -0.2854    0.0000 N   0  0  0  0  0  0  0  0  0  0  0  0
    3.3523   -1.1104    0.0000 C   0  0  0  0  0  0  0  0  0  0  0  0
    2.6378   -1.5229    0.0000 N   0  0  0  0  0  0  0  0  0  0  0  0
    1.9233   -1.1104    0.0000 C   0  0  0  0  0  0  0  0  0  0  0  0
    4.0668   -1.5229    0.0000 C   0  0  0  0  0  0  0  0  0  0  0  0
    4.7812   -1.1104    0.0000 C   0  0  0  0  0  0  0  0  0  0  0  0
    5.4957   -1.5229    0.0000 C   0  0  0  0  0  0  0  0  0  0  0  0
    5.4957   -2.3479    0.0000 C   0  0  0  0  0  0  0  0  0  0  0  0
    4.7812   -2.7604    0.0000 C   0  0  0  0  0  0  0  0  0  0  0  0
    4.7812   -3.5854    0.0000 Cl  0  0  0  0  0  0  0  0  0  0  0  0
    4.0668   -2.3479    0.0000 C   0  0  0  0  0  0  0  0  0  0  0  0
    4.7812   -0.2854    0.0000 C   0  0  0  0  0  0  0  0  0  0  0  0
    4.1138    0.1995    0.0000 N   0  0  0  0  0  0  0  0  0  0  0  0
    4.3687    0.9841    0.0000 C   0  0  0  0  0  0  0  0  0  0  0  0
    5.1937    0.9841    0.0000 C   0  0  0  0  0  0  0  0  0  0  0  0
    5.4487    0.1995    0.0000 S   0  0  0  0  0  0  0  0  0  0  0  0
    3.8838    1.6515    0.0000 C   0  0  0  0  0  0  0  0  0  0  0  0
    3.0633    1.5653    0.0000 O   0  0  0  0  0  0  0  0  0  0  0  0
    4.2194    2.4052    0.0000 O   0  0  0  0  0  0  0  0  0  0  0  0
  1  2  1  0  0  0  0
  2  3  1  0  0  0  0
  3  4  2  0  0  0  0
  4  5  1  0  0  0  0
  5  6  2  0  0  0  0
  6  7  1  0  0  0  0
  7  8  1  0  0  0  0
  8  9  1  0  0  0  0
  9 10  2  0  0  0  0
 10 11  1  0  0  0  0
 11 12  2  0  0  0  0
 12 13  1  0  0  0  0
 13 14  2  0  0  0  0
  9 14  1  0  0  0  0
  6 15  1  0  0  0  0
 15 16  2  0  0  0  0
 16 17  1  0  0  0  0
 17 18  2  0  0  0  0
  2 18  1  0  0  0  0
  5 18  1  0  0  0  0
 16 19  1  0  0  0  0
 19 20  2  0  0  0  0
 20 21  1  0  0  0  0
 21 22  2  0  0  0  0
 22 23  1  0  0  0  0
 23 24  1  0  0  0  0
 23 25  2  0  0  0  0
 19 25  1  0  0  0  0
 20 26  1  0  0  0  0
 26 27  2  0  0  0  0
 27 28  1  0  0  0  0
 28 29  2  0  0  0  0
 29 30  1  0  0  0  0
 26 30  1  0  0  0  0
 28 31  1  0  0  0  0
 31 32  1  0  0  0  0
 31 33  2  0  0  0  0
M  END
> <ID>
CPD_5537

$$$$
CPD_5542
  Mrv1822 09091914012D          

 31 33  0  0  1  0            999 V2000
    5.0013    1.2375    0.0000 C   0  0  0  0  0  0  0  0  0  0  0  0
    4.2868    0.8250    0.0000 O   0  0  0  0  0  0  0  0  0  0  0  0
    4.2868    0.0000    0.0000 C   0  0  0  0  0  0  0  0  0  0  0  0
    5.0013   -0.4125    0.0000 C   0  0  0  0  0  0  0  0  0  0  0  0
    5.0013   -1.2375    0.0000 C   0  0  0  0  0  0  0  0  0  0  0  0
    4.2868   -1.6500    0.0000 C   0  0  0  0  0  0  0  0  0  0  0  0
    4.2868   -2.4750    0.0000 O   0  0  0  0  0  0  0  0  0  0  0  0
    3.5724   -2.8875    0.0000 C   0  0  0  0  0  0  0  0  0  0  0  0
    3.5724   -1.2375    0.0000 C   0  0  0  0  0  0  0  0  0  0  0  0
    3.5724   -0.4125    0.0000 C   0  0  0  0  0  0  0  0  0  0  0  0
    2.8579    0.0000    0.0000 C   0  0  0  0  0  0  0  0  0  0  0  0
    2.8579    0.8250    0.0000 C   0  0  1  0  0  0  0  0  0  0  0  0
    3.5724    1.2375    0.0000 C   0  0  0  0  0  0  0  0  0  0  0  0
    2.1434    1.2375    0.0000 N   0  0  0  0  0  0  0  0  0  0  0  0
    5.7158   -1.6500    0.0000 C   0  0  0  0  0  0  0  0  0  0  0  0
    6.4302   -1.2375    0.0000 C   0  0  0  0  0  0  0  0  0  0  0  0
    7.1447   -1.6500    0.0000 C   0  0  0  0  0  0  0  0  0  0  0  0
    7.8592   -1.2375    0.0000 Cl  0  0  0  0  0  0  0  0  0  0  0  0
    7.1447   -2.4750    0.0000 C   0  0  0  0  0  0  0  0  0  0  0  0
    6.4302   -2.8875    0.0000 C   0  0  0  0  0  0  0  0  0  0  0  0
    6.4302   -3.7125    0.0000 N   0  0  0  0  0  0  0  0  0  0  0  0
    5.7158   -4.1250    0.0000 C   0  0  0  0  0  0  0  0  0  0  0  0
    5.7158   -4.9500    0.0000 N   0  0  0  0  0  0  0  0  0  0  0  0
    5.0013   -5.3625    0.0000 C   0  0  0  0  0  0  0  0  0  0  0  0
    5.0013   -6.1875    0.0000 C   0  0  0  0  0  0  0  0  0  0  0  0
    4.2868   -4.9500    0.0000 C   0  0  0  0  0  0  0  0  0  0  0  0
    3.5724   -5.3625    0.0000 C   0  0  0  0  0  0  0  0  0  0  0  0
    4.2868   -4.1250    0.0000 C   0  0  0  0  0  0  0  0  0  0  0  0
    3.5724   -3.7125    0.0000 O   0  0  0  0  0  0  0  0  0  0  0  0
    5.0013   -3.7125    0.0000 N   0  0  0  0  0  0  0  0  0  0  0  0
    5.7158   -2.4750    0.0000 C   0  0  0  0  0  0  0  0  0  0  0  0
  1  2  1  0  0  0  0
  2  3  1  0  0  0  0
  3  4  2  0  0  0  0
  4  5  1  0  0  0  0
  5  6  2  0  0  0  0
  6  7  1  0  0  0  0
  7  8  1  0  0  0  0
  6  9  1  0  0  0  0
  9 10  2  0  0  0  0
  3 10  1  0  0  0  0
 10 11  1  0  0  0  0
 12 11  1  0  0  0  0
 12 13  1  0  0  0  0
 12 14  1  6  0  0  0
  5 15  1  0  0  0  0
 15 16  2  0  0  0  0
 16 17  1  0  0  0  0
 17 18  1  0  0  0  0
 17 19  2  0  0  0  0
 19 20  1  0  0  0  0
 20 21  1  0  0  0  0
 21 22  1  0  0  0  0
 22 23  2  0  0  0  0
 23 24  1  0  0  0  0
 24 25  1  0  0  0  0
 24 26  2  0  0  0  0
 26 27  1  0  0  0  0
 26 28  1  0  0  0  0
 28 29  2  0  0  0  0
 28 30  1  0  0  0  0
 22 30  1  0  0  0  0
 20 31  2  0  0  0  0
 15 31  1  0  0  0  0
M  END
> <ID>
CPD_5542

$$$$
CPD_5547
  Mrv1822 09091914012D          

 32 35  0  0  0  0            999 V2000
    4.3276   -5.2053    0.0000 C   0  0  0  0  0  0  0  0  0  0  0  0
    4.3276   -6.0303    0.0000 C   0  0  0  0  0  0  0  0  0  0  0  0
    5.0421   -6.4428    0.0000 C   0  0  0  0  0  0  0  0  0  0  0  0
    5.7566   -6.0303    0.0000 C   0  0  0  0  0  0  0  0  0  0  0  0
    5.0421   -7.2678    0.0000 C   0  0  0  0  0  0  0  0  0  0  0  0
    5.7566   -7.6803    0.0000 O   0  0  0  0  0  0  0  0  0  0  0  0
    4.3276   -7.6803    0.0000 N   0  0  0  0  0  0  0  0  0  0  0  0
    3.6132   -7.2678    0.0000 C   0  0  0  0  0  0  0  0  0  0  0  0
    2.8987   -7.6803    0.0000 N   0  0  0  0  0  0  0  0  0  0  0  0
    2.1842   -7.2678    0.0000 C   0  0  0  0  0  0  0  0  0  0  0  0
    1.4698   -7.6803    0.0000 C   0  0  0  0  0  0  0  0  0  0  0  0
    0.7553   -7.2678    0.0000 C   0  0  0  0  0  0  0  0  0  0  0  0
    0.7553   -6.4428    0.0000 C   0  0  0  0  0  0  0  0  0  0  0  0
    1.4698   -6.0303    0.0000 C   0  0  0  0  0  0  0  0  0  0  0  0
    1.4698   -5.2053    0.0000 Cl  0  0  0  0  0  0  0  0  0  0  0  0
    2.1842   -6.4428    0.0000 C   0  0  0  0  0  0  0  0  0  0  0  0
    0.0408   -7.6803    0.0000 C   0  0  0  0  0  0  0  0  0  0  0  0
    0.0408   -8.5053    0.0000 C   0  0  0  0  0  0  0  0  0  0  0  0
   -0.6737   -8.9178    0.0000 C   0  0  0  0  0  0  0  0  0  0  0  0
   -0.6737   -9.7428    0.0000 F   0  0  0  0  0  0  0  0  0  0  0  0
   -1.3881   -8.5053    0.0000 C   0  0  0  0  0  0  0  0  0  0  0  0
   -2.1026   -8.9178    0.0000 C   0  0  0  0  0  0  0  0  0  0  0  0
   -2.8171   -8.5053    0.0000 N   0  0  0  0  0  0  0  0  0  0  0  0
   -3.4987   -8.9701    0.0000 C   0  0  0  0  0  0  0  0  0  0  0  0
   -4.2871   -8.7269    0.0000 C   0  0  0  0  0  0  0  0  0  0  0  0
   -4.5885   -7.9589    0.0000 C   0  0  0  0  0  0  0  0  0  0  0  0
   -4.1760   -7.2444    0.0000 N   0  0  0  0  0  0  0  0  0  0  0  0
   -3.3602   -7.1215    0.0000 C   0  0  0  0  0  0  0  0  0  0  0  0
   -2.7554   -7.6826    0.0000 C   0  0  0  0  0  0  0  0  0  0  0  0
   -1.3881   -7.6803    0.0000 C   0  0  0  0  0  0  0  0  0  0  0  0
   -0.6737   -7.2678    0.0000 C   0  0  0  0  0  0  0  0  0  0  0  0
    3.6132   -6.4428    0.0000 N   0  0  0  0  0  0  0  0  0  0  0  0
  1  2  1  0  0  0  0
  2  3  2  0  0  0  0
  3  4  1  0  0  0  0
  3  5  1  0  0  0  0
  5  6  2  0  0  0  0
  5  7  1  0  0  0  0
  7  8  1  0  0  0  0
  8  9  1  0  0  0  0
  9 10  1  0  0  0  0
 10 11  2  0  0  0  0
 11 12  1  0  0  0  0
 12 13  2  0  0  0  0
 13 14  1  0  0  0  0
 14 15  1  0  0  0  0
 14 16  2  0  0  0  0
 10 16  1  0  0  0  0
 12 17  1  0  0  0  0
 17 18  2  0  0  0  0
 18 19  1  0  0  0  0
 19 20  1  0  0  0  0
 19 21  2  0  0  0  0
 21 22  1  0  0  0  0
 22 23  1  0  0  0  0
 23 24  1  0  0  0  0
 24 25  1  0  0  0  0
 25 26  1  0  0  0  0
 26 27  1  0  0  0  0
 27 28  1  0  0  0  0
 28 29  1  0  0  0  0
 23 29  1  0  0  0  0
 21 30  1  0  0  0  0
 30 31  2  0  0  0  0
 17 31  1  0  0  0  0
  8 32  2  0  0  0  0
  2 32  1  0  0  0  0
M  END
> <ID>
CPD_5547

$$$$
CPD_5552
  Mrv1822 09091914012D          

 27 29  0  0  0  0            999 V2000
    1.4289    0.8250    0.0000 C   0  0  0  0  0  0  0  0  0  0  0  0
    1.4289   -0.0000    0.0000 O   0  0  0  0  0  0  0  0  0  0  0  0
    0.7145   -0.4125    0.0000 C   0  0  0  0  0  0  0  0  0  0  0  0
    0.0000    0.0000    0.0000 O   0  0  0  0  0  0  0  0  0  0  0  0
    0.7145   -1.2375    0.0000 C   0  0  0  0  0  0  0  0  0  0  0  0
    0.0470   -1.7224    0.0000 C   0  0  0  0  0  0  0  0  0  0  0  0
   -0.7376   -1.4675    0.0000 N   0  0  0  0  0  0  0  0  0  0  0  0
   -1.3507   -2.0195    0.0000 C   0  0  0  0  0  0  0  0  0  0  0  0
   -1.1792   -2.8265    0.0000 C   0  0  0  0  0  0  0  0  0  0  0  0
   -2.1353   -1.7646    0.0000 O   0  0  0  0  0  0  0  0  0  0  0  0
    0.3020   -2.5070    0.0000 S   0  0  0  0  0  0  0  0  0  0  0  0
    1.1270   -2.5070    0.0000 C   0  0  0  0  0  0  0  0  0  0  0  0
    1.3819   -1.7224    0.0000 C   0  0  0  0  0  0  0  0  0  0  0  0
    1.6119   -3.1745    0.0000 C   0  0  0  0  0  0  0  0  0  0  0  0
    2.4324   -3.0882    0.0000 C   0  0  0  0  0  0  0  0  0  0  0  0
    2.9173   -3.7557    0.0000 C   0  0  0  0  0  0  0  0  0  0  0  0
    2.5817   -4.5094    0.0000 C   0  0  0  0  0  0  0  0  0  0  0  0
    1.7613   -4.5956    0.0000 C   0  0  0  0  0  0  0  0  0  0  0  0
    1.2763   -3.9282    0.0000 C   0  0  0  0  0  0  0  0  0  0  0  0
    0.4559   -4.0144    0.0000 C   0  0  0  0  0  0  0  0  0  0  0  0
    0.1203   -4.7681    0.0000 C   0  0  0  0  0  0  0  0  0  0  0  0
    0.5328   -5.4825    0.0000 C   0  0  0  0  0  0  0  0  0  0  0  0
    1.3533   -5.5688    0.0000 O   0  0  0  0  0  0  0  0  0  0  0  0
   -0.0192   -6.0956    0.0000 N   0  0  0  0  0  0  0  0  0  0  0  0
   -0.7729   -5.7601    0.0000 N   0  0  0  0  0  0  0  0  0  0  0  0
   -0.6867   -4.9396    0.0000 C   0  0  0  0  0  0  0  0  0  0  0  0
   -1.2998   -4.3876    0.0000 C   0  0  0  0  0  0  0  0  0  0  0  0
  1  2  1  0  0  0  0
  2  3  1  0  0  0  0
  3  4  2  0  0  0  0
  3  5  1  0  0  0  0
  5  6  2  0  0  0  0
  6  7  1  0  0  0  0
  7  8  1  0  0  0  0
  8  9  1  0  0  0  0
  8 10  2  0  0  0  0
  6 11  1  0  0  0  0
 11 12  1  0  0  0  0
 12 13  2  0  0  0  0
  5 13  1  0  0  0  0
 12 14  1  0  0  0  0
 14 15  2  0  0  0  0
 15 16  1  0  0  0  0
 16 17  2  0  0  0  0
 17 18  1  0  0  0  0
 18 19  2  0  0  0  0
 14 19  1  0  0  0  0
 19 20  1  0  0  0  0
 20 21  1  0  0  0  0
 21 22  2  0  0  0  0
 22 23  1  0  0  0  0
 22 24  1  0  0  0  0
 24 25  1  0  0  0  0
 25 26  2  0  0  0  0
 21 26  1  0  0  0  0
 26 27  1  0  0  0  0
M  END
> <ID>
CPD_5552

$$$$
CPD_5557
  Mrv1822 09091914012D          

 28 31  0  0  0  0            999 V2000
    4.8946   -2.9491    0.0000 C   0  0  0  0  0  0  0  0  0  0  0  0
    4.8946   -3.7741    0.0000 C   0  0  0  0  0  0  0  0  0  0  0  0
    5.5620   -4.2590    0.0000 N   0  0  0  0  0  0  0  0  0  0  0  0
    5.3071   -5.0437    0.0000 N   0  0  0  0  0  0  0  0  0  0  0  0
    4.4821   -5.0437    0.0000 C   0  0  0  0  0  0  0  0  0  0  0  0
    3.9972   -5.7111    0.0000 O   0  0  0  0  0  0  0  0  0  0  0  0
    4.2272   -4.2590    0.0000 C   0  0  0  0  0  0  0  0  0  0  0  0
    3.4425   -4.0041    0.0000 C   0  0  0  0  0  0  0  0  0  0  0  0
    2.8294   -4.5561    0.0000 C   0  0  0  0  0  0  0  0  0  0  0  0
    3.0010   -5.3631    0.0000 C   0  0  0  0  0  0  0  0  0  0  0  0
    2.3879   -5.9151    0.0000 C   0  0  0  0  0  0  0  0  0  0  0  0
    1.6032   -5.6602    0.0000 C   0  0  0  0  0  0  0  0  0  0  0  0
    1.4317   -4.8532    0.0000 C   0  0  0  0  0  0  0  0  0  0  0  0
    2.0448   -4.3012    0.0000 C   0  0  0  0  0  0  0  0  0  0  0  0
    1.8733   -3.4942    0.0000 C   0  0  0  0  0  0  0  0  0  0  0  0
    1.0887   -3.2393    0.0000 C   0  0  0  0  0  0  0  0  0  0  0  0
    0.9171   -2.4323    0.0000 C   0  0  0  0  0  0  0  0  0  0  0  0
    0.1325   -2.1774    0.0000 O   0  0  0  0  0  0  0  0  0  0  0  0
   -0.0390   -1.3704    0.0000 C   0  0  0  0  0  0  0  0  0  0  0  0
   -0.8236   -1.1155    0.0000 C   0  0  0  0  0  0  0  0  0  0  0  0
   -0.9952   -0.3085    0.0000 C   0  0  0  0  0  0  0  0  0  0  0  0
   -0.3821    0.2436    0.0000 C   0  0  0  0  0  0  0  0  0  0  0  0
   -0.5536    1.0505    0.0000 N   0  0  0  0  0  0  0  0  0  0  0  0
    0.4026   -0.0114    0.0000 C   0  0  0  0  0  0  0  0  0  0  0  0
    0.5741   -0.8184    0.0000 C   0  0  0  0  0  0  0  0  0  0  0  0
    1.5302   -1.8803    0.0000 C   0  0  0  0  0  0  0  0  0  0  0  0
    2.3149   -2.1352    0.0000 C   0  0  0  0  0  0  0  0  0  0  0  0
    2.4864   -2.9422    0.0000 C   0  0  0  0  0  0  0  0  0  0  0  0
  1  2  1  0  0  0  0
  2  3  2  0  0  0  0
  3  4  1  0  0  0  0
  4  5  1  0  0  0  0
  5  6  1  0  0  0  0
  5  7  2  0  0  0  0
  2  7  1  0  0  0  0
  7  8  1  0  0  0  0
  8  9  1  0  0  0  0
  9 10  2  0  0  0  0
 10 11  1  0  0  0  0
 11 12  2  0  0  0  0
 12 13  1  0  0  0  0
 13 14  2  0  0  0  0
  9 14  1  0  0  0  0
 14 15  1  0  0  0  0
 15 16  2  0  0  0  0
 16 17  1  0  0  0  0
 17 18  1  0  0  0  0
 18 19  1  0  0  0  0
 19 20  2  0  0  0  0
 20 21  1  0  0  0  0
 21 22  2  0  0  0  0
 22 23  1  0  0  0  0
 22 24  1  0  0  0  0
 24 25  2  0  0  0  0
 19 25  1  0  0  0  0
 17 26  2  0  0  0  0
 26 27  1  0  0  0  0
 27 28  2  0  0  0  0
 15 28  1  0  0  0  0
M  END
> <ID>
CPD_5557

$$$$
CPD_5562
  Mrv1822 09091914012D          

 22 24  0  0  0  0            999 V2000
    3.4656   -0.4741    0.0000 C   0  0  0  0  0  0  0  0  0  0  0  0
    3.4656   -1.2991    0.0000 C   0  0  0  0  0  0  0  0  0  0  0  0
    4.1331   -1.7840    0.0000 N   0  0  0  0  0  0  0  0  0  0  0  0
    3.8781   -2.5687    0.0000 N   0  0  0  0  0  0  0  0  0  0  0  0
    3.0531   -2.5687    0.0000 C   0  0  0  0  0  0  0  0  0  0  0  0
    2.5682   -3.2361    0.0000 O   0  0  0  0  0  0  0  0  0  0  0  0
    2.7982   -1.7840    0.0000 C   0  0  0  0  0  0  0  0  0  0  0  0
    2.0136   -1.5291    0.0000 C   0  0  0  0  0  0  0  0  0  0  0  0
    1.4005   -2.0811    0.0000 C   0  0  0  0  0  0  0  0  0  0  0  0
    1.5720   -2.8881    0.0000 C   0  0  0  0  0  0  0  0  0  0  0  0
    0.9589   -3.4401    0.0000 C   0  0  0  0  0  0  0  0  0  0  0  0
    0.1743   -3.1852    0.0000 C   0  0  0  0  0  0  0  0  0  0  0  0
    0.0028   -2.3782    0.0000 C   0  0  0  0  0  0  0  0  0  0  0  0
    0.6159   -1.8262    0.0000 C   0  0  0  0  0  0  0  0  0  0  0  0
    0.4443   -1.0192    0.0000 C   0  0  0  0  0  0  0  0  0  0  0  0
   -0.3403   -0.7643    0.0000 C   0  0  0  0  0  0  0  0  0  0  0  0
   -0.9534   -1.3163    0.0000 O   0  0  0  0  0  0  0  0  0  0  0  0
   -0.5118    0.0427    0.0000 C   0  0  0  0  0  0  0  0  0  0  0  0
   -1.2964    0.2976    0.0000 Br  0  0  0  0  0  0  0  0  0  0  0  0
    0.1013    0.5947    0.0000 C   0  0  0  0  0  0  0  0  0  0  0  0
    0.8859    0.3398    0.0000 C   0  0  0  0  0  0  0  0  0  0  0  0
    1.0574   -0.4672    0.0000 C   0  0  0  0  0  0  0  0  0  0  0  0
  1  2  1  0  0  0  0
  2  3  2  0  0  0  0
  3  4  1  0  0  0  0
  4  5  1  0  0  0  0
  5  6  1  0  0  0  0
  5  7  2  0  0  0  0
  2  7  1  0  0  0  0
  7  8  1  0  0  0  0
  8  9  1  0  0  0  0
  9 10  2  0  0  0  0
 10 11  1  0  0  0  0
 11 12  2  0  0  0  0
 12 13  1  0  0  0  0
 13 14  2  0  0  0  0
  9 14  1  0  0  0  0
 14 15  1  0  0  0  0
 15 16  2  0  0  0  0
 16 17  1  0  0  0  0
 16 18  1  0  0  0  0
 18 19  1  0  0  0  0
 18 20  2  0  0  0  0
 20 21  1  0  0  0  0
 21 22  2  0  0  0  0
 15 22  1  0  0  0  0
M  END
> <ID>
CPD_5562

$$$$
CPD_5567
  Mrv1822 09091914012D          

 28 30  0  0  0  0            999 V2000
   -2.0367   -0.4741    0.0000 C   0  0  0  0  0  0  0  0  0  0  0  0
   -2.0367   -1.2991    0.0000 C   0  0  0  0  0  0  0  0  0  0  0  0
   -2.7041   -1.7840    0.0000 N   0  0  0  0  0  0  0  0  0  0  0  0
   -2.4492   -2.5687    0.0000 N   0  0  0  0  0  0  0  0  0  0  0  0
   -1.6242   -2.5687    0.0000 C   0  0  0  0  0  0  0  0  0  0  0  0
   -1.1393   -3.2361    0.0000 O   0  0  0  0  0  0  0  0  0  0  0  0
   -1.3693   -1.7840    0.0000 C   0  0  0  0  0  0  0  0  0  0  0  0
   -0.5846   -1.5291    0.0000 C   0  0  0  0  0  0  0  0  0  0  0  0
    0.0284   -2.0811    0.0000 C   0  0  0  0  0  0  0  0  0  0  0  0
   -0.1431   -2.8881    0.0000 C   0  0  0  0  0  0  0  0  0  0  0  0
    0.4700   -3.4401    0.0000 C   0  0  0  0  0  0  0  0  0  0  0  0
    1.2546   -3.1852    0.0000 C   0  0  0  0  0  0  0  0  0  0  0  0
    1.4262   -2.3782    0.0000 C   0  0  0  0  0  0  0  0  0  0  0  0
    0.8131   -1.8262    0.0000 C   0  0  0  0  0  0  0  0  0  0  0  0
    0.9846   -1.0192    0.0000 C   0  0  0  0  0  0  0  0  0  0  0  0
    0.3715   -0.4672    0.0000 C   0  0  0  0  0  0  0  0  0  0  0  0
    0.5430    0.3398    0.0000 C   0  0  0  0  0  0  0  0  0  0  0  0
   -0.0701    0.8918    0.0000 Cl  0  0  0  0  0  0  0  0  0  0  0  0
    1.3277    0.5947    0.0000 C   0  0  0  0  0  0  0  0  0  0  0  0
    1.9407    0.0427    0.0000 C   0  0  0  0  0  0  0  0  0  0  0  0
    1.7692   -0.7643    0.0000 C   0  0  0  0  0  0  0  0  0  0  0  0
    2.3823   -1.3163    0.0000 C   0  0  0  0  0  0  0  0  0  0  0  0
    2.2108   -2.1233    0.0000 O   0  0  0  0  0  0  0  0  0  0  0  0
    3.1669   -1.0614    0.0000 O   0  0  0  0  0  0  0  0  0  0  0  0
    1.4992    1.4017    0.0000 S   0  0  0  0  0  0  0  0  0  0  0  0
    1.6707    2.2087    0.0000 N   0  0  0  0  0  0  0  0  0  0  0  0
    2.3061    1.2302    0.0000 O   0  0  0  0  0  0  0  0  0  0  0  0
    0.6922    1.5732    0.0000 O   0  0  0  0  0  0  0  0  0  0  0  0
  1  2  1  0  0  0  0
  2  3  2  0  0  0  0
  3  4  1  0  0  0  0
  4  5  1  0  0  0  0
  5  6  1  0  0  0  0
  5  7  2  0  0  0  0
  2  7  1  0  0  0  0
  7  8  1  0  0  0  0
  8  9  1  0  0  0  0
  9 10  2  0  0  0  0
 10 11  1  0  0  0  0
 11 12  2  0  0  0  0
 12 13  1  0  0  0  0
 13 14  2  0  0  0  0
  9 14  1  0  0  0  0
 14 15  1  0  0  0  0
 15 16  2  0  0  0  0
 16 17  1  0  0  0  0
 17 18  1  0  0  0  0
 17 19  2  0  0  0  0
 19 20  1  0  0  0  0
 20 21  2  0  0  0  0
 15 21  1  0  0  0  0
 21 22  1  0  0  0  0
 22 23  1  0  0  0  0
 22 24  2  0  0  0  0
 19 25  1  0  0  0  0
 25 26  1  0  0  0  0
 25 27  2  0  0  0  0
 25 28  2  0  0  0  0
M  END
> <ID>
CPD_5567

$$$$
CPD_5572
  Mrv1822 09091914012D          

 26 29  0  0  0  0            999 V2000
   -0.2775   -6.6386    0.0000 C   0  0  0  0  0  0  0  0  0  0  0  0
   -0.6900   -5.9241    0.0000 C   0  0  0  0  0  0  0  0  0  0  0  0
   -0.2775   -5.2096    0.0000 O   0  0  0  0  0  0  0  0  0  0  0  0
   -0.6900   -4.4952    0.0000 C   0  0  0  0  0  0  0  0  0  0  0  0
   -1.5150   -4.4952    0.0000 O   0  0  0  0  0  0  0  0  0  0  0  0
   -0.2775   -3.7807    0.0000 C   0  0  0  0  0  0  0  0  0  0  0  0
   -0.6131   -3.0270    0.0000 C   0  0  0  0  0  0  0  0  0  0  0  0
    0.0000   -2.4750    0.0000 N   0  0  0  0  0  0  0  0  0  0  0  0
    0.0000   -1.6500    0.0000 C   0  0  0  0  0  0  0  0  0  0  0  0
    0.7145   -1.2375    0.0000 C   0  0  0  0  0  0  0  0  0  0  0  0
    1.4289   -1.6500    0.0000 C   0  0  0  0  0  0  0  0  0  0  0  0
    1.4289   -2.4750    0.0000 C   0  0  0  0  0  0  0  0  0  0  0  0
    2.1434   -2.8875    0.0000 C   0  0  0  0  0  0  0  0  0  0  0  0
    0.7145   -2.8875    0.0000 C   0  0  0  0  0  0  0  0  0  0  0  0
    0.5429   -3.6945    0.0000 N   0  0  0  0  0  0  0  0  0  0  0  0
    0.7145   -0.4125    0.0000 C   0  0  0  0  0  0  0  0  0  0  0  0
    0.0000    0.0000    0.0000 C   0  0  0  0  0  0  0  0  0  0  0  0
   -0.7846   -0.2549    0.0000 O   0  0  0  0  0  0  0  0  0  0  0  0
   -1.2695    0.4125    0.0000 C   0  0  0  0  0  0  0  0  0  0  0  0
   -2.0945    0.4125    0.0000 C   0  0  0  0  0  0  0  0  0  0  0  0
   -2.5070   -0.3020    0.0000 O   0  0  0  0  0  0  0  0  0  0  0  0
   -0.7846    1.0799    0.0000 C   0  0  0  0  0  0  0  0  0  0  0  0
    0.0000    0.8250    0.0000 C   0  0  0  0  0  0  0  0  0  0  0  0
    0.7145    1.2375    0.0000 C   0  0  0  0  0  0  0  0  0  0  0  0
    1.4289    0.8250    0.0000 C   0  0  0  0  0  0  0  0  0  0  0  0
    1.4289    0.0000    0.0000 C   0  0  0  0  0  0  0  0  0  0  0  0
  1  2  1  0  0  0  0
  2  3  1  0  0  0  0
  3  4  1  0  0  0  0
  4  5  2  0  0  0  0
  4  6  1  0  0  0  0
  6  7  2  0  0  0  0
  7  8  1  0  0  0  0
  8  9  1  0  0  0  0
  9 10  2  0  0  0  0
 10 11  1  0  0  0  0
 11 12  2  0  0  0  0
 12 13  1  0  0  0  0
 12 14  1  0  0  0  0
  8 14  1  0  0  0  0
 14 15  2  0  0  0  0
  6 15  1  0  0  0  0
 10 16  1  0  0  0  0
 16 17  2  0  0  0  0
 17 18  1  0  0  0  0
 18 19  1  0  0  0  0
 19 20  1  0  0  0  0
 20 21  1  0  0  0  0
 19 22  1  0  0  0  0
 22 23  1  0  0  0  0
 17 23  1  0  0  0  0
 23 24  2  0  0  0  0
 24 25  1  0  0  0  0
 25 26  2  0  0  0  0
 16 26  1  0  0  0  0
M  END
> <ID>
CPD_5572

$$$$
CPD_5577
  Mrv1822 09091914012D          

 25 27  0  0  0  0            999 V2000
   -1.8212   -2.1269    0.0000 C   0  0  0  0  0  0  0  0  0  0  0  0
   -1.4087   -1.4124    0.0000 C   0  0  0  0  0  0  0  0  0  0  0  0
   -0.5837   -1.4124    0.0000 O   0  0  0  0  0  0  0  0  0  0  0  0
   -0.1712   -0.6979    0.0000 C   0  0  0  0  0  0  0  0  0  0  0  0
   -0.5837    0.0165    0.0000 O   0  0  0  0  0  0  0  0  0  0  0  0
    0.6538   -0.6979    0.0000 C   0  0  0  0  0  0  0  0  0  0  0  0
    1.1387   -0.0305    0.0000 C   0  0  0  0  0  0  0  0  0  0  0  0
    1.9233   -0.2854    0.0000 N   0  0  0  0  0  0  0  0  0  0  0  0
    2.6378    0.1271    0.0000 C   0  0  0  0  0  0  0  0  0  0  0  0
    3.3523   -0.2854    0.0000 C   0  0  0  0  0  0  0  0  0  0  0  0
    3.3523   -1.1104    0.0000 C   0  0  0  0  0  0  0  0  0  0  0  0
    2.6378   -1.5229    0.0000 C   0  0  0  0  0  0  0  0  0  0  0  0
    2.6378   -2.3479    0.0000 C   0  0  0  0  0  0  0  0  0  0  0  0
    1.9233   -1.1104    0.0000 C   0  0  0  0  0  0  0  0  0  0  0  0
    1.1387   -1.3654    0.0000 N   0  0  0  0  0  0  0  0  0  0  0  0
    4.0668    0.1271    0.0000 C   0  0  0  0  0  0  0  0  0  0  0  0
    4.0668    0.9521    0.0000 C   0  0  0  0  0  0  0  0  0  0  0  0
    4.7812    1.3646    0.0000 C   0  0  0  0  0  0  0  0  0  0  0  0
    5.4957    0.9521    0.0000 C   0  0  0  0  0  0  0  0  0  0  0  0
    5.4957    0.1271    0.0000 C   0  0  0  0  0  0  0  0  0  0  0  0
    6.2102   -0.2854    0.0000 N   0  0  0  0  0  0  0  0  0  0  0  0
    6.2102   -1.1104    0.0000 C   0  0  0  0  0  0  0  0  0  0  0  0
    6.9246   -1.5229    0.0000 N   0  0  0  0  0  0  0  0  0  0  0  0
    5.4957   -1.5229    0.0000 S   0  0  0  0  0  0  0  0  0  0  0  0
    4.7812   -0.2854    0.0000 C   0  0  0  0  0  0  0  0  0  0  0  0
  1  2  1  0  0  0  0
  2  3  1  0  0  0  0
  3  4  1  0  0  0  0
  4  5  2  0  0  0  0
  4  6  1  0  0  0  0
  6  7  2  0  0  0  0
  7  8  1  0  0  0  0
  8  9  1  0  0  0  0
  9 10  2  0  0  0  0
 10 11  1  0  0  0  0
 11 12  2  0  0  0  0
 12 13  1  0  0  0  0
 12 14  1  0  0  0  0
  8 14  1  0  0  0  0
 14 15  2  0  0  0  0
  6 15  1  0  0  0  0
 10 16  1  0  0  0  0
 16 17  2  0  0  0  0
 17 18  1  0  0  0  0
 18 19  2  0  0  0  0
 19 20  1  0  0  0  0
 20 21  1  0  0  0  0
 21 22  1  0  0  0  0
 22 23  1  0  0  0  0
 22 24  2  0  0  0  0
 20 25  2  0  0  0  0
 16 25  1  0  0  0  0
M  END
> <ID>
CPD_5577

$$$$
CPD_5582
  Mrv1822 09091914012D          

 24 26  0  0  0  0            999 V2000
   -1.8212   -2.1269    0.0000 C   0  0  0  0  0  0  0  0  0  0  0  0
   -1.4087   -1.4124    0.0000 C   0  0  0  0  0  0  0  0  0  0  0  0
   -0.5837   -1.4124    0.0000 O   0  0  0  0  0  0  0  0  0  0  0  0
   -0.1712   -0.6979    0.0000 C   0  0  0  0  0  0  0  0  0  0  0  0
   -0.5837    0.0165    0.0000 O   0  0  0  0  0  0  0  0  0  0  0  0
    0.6538   -0.6979    0.0000 C   0  0  0  0  0  0  0  0  0  0  0  0
    1.1387   -0.0305    0.0000 C   0  0  0  0  0  0  0  0  0  0  0  0
    1.9233   -0.2854    0.0000 N   0  0  0  0  0  0  0  0  0  0  0  0
    2.6378    0.1271    0.0000 C   0  0  0  0  0  0  0  0  0  0  0  0
    3.3523   -0.2854    0.0000 C   0  0  0  0  0  0  0  0  0  0  0  0
    3.3523   -1.1104    0.0000 C   0  0  0  0  0  0  0  0  0  0  0  0
    2.6378   -1.5229    0.0000 C   0  0  0  0  0  0  0  0  0  0  0  0
    2.6378   -2.3479    0.0000 C   0  0  0  0  0  0  0  0  0  0  0  0
    1.9233   -1.1104    0.0000 C   0  0  0  0  0  0  0  0  0  0  0  0
    1.1387   -1.3654    0.0000 N   0  0  0  0  0  0  0  0  0  0  0  0
    4.0668    0.1271    0.0000 C   0  0  0  0  0  0  0  0  0  0  0  0
    4.0668    0.9521    0.0000 C   0  0  0  0  0  0  0  0  0  0  0  0
    4.7812    1.3646    0.0000 C   0  0  0  0  0  0  0  0  0  0  0  0
    5.4957    0.9521    0.0000 C   0  0  0  0  0  0  0  0  0  0  0  0
    6.2102    1.3646    0.0000 C   0  0  0  0  0  0  0  0  0  0  0  0
    5.4957    0.1271    0.0000 C   0  0  0  0  0  0  0  0  0  0  0  0
    4.7812   -0.2854    0.0000 C   0  0  0  0  0  0  0  0  0  0  0  0
    6.2102   -0.2854    0.0000 C   0  0  0  0  0  0  0  0  0  0  0  0
    6.9246   -0.6979    0.0000 N   0  0  0  0  0  0  0  0  0  0  0  0
  1  2  1  0  0  0  0
  2  3  1  0  0  0  0
  3  4  1  0  0  0  0
  4  5  2  0  0  0  0
  4  6  1  0  0  0  0
  6  7  2  0  0  0  0
  7  8  1  0  0  0  0
  8  9  1  0  0  0  0
  9 10  2  0  0  0  0
 10 11  1  0  0  0  0
 11 12  2  0  0  0  0
 12 13  1  0  0  0  0
 12 14  1  0  0  0  0
  8 14  1  0  0  0  0
 14 15  2  0  0  0  0
  6 15  1  0  0  0  0
 10 16  1  0  0  0  0
 16 17  2  0  0  0  0
 17 18  1  0  0  0  0
 18 19  2  0  0  0  0
 19 20  1  0  0  0  0
 19 21  1  0  0  0  0
 21 22  2  0  0  0  0
 16 22  1  0  0  0  0
 21 23  1  0  0  0  0
 23 24  3  0  0  0  0
M  END
> <ID>
CPD_5582

$$$$
CPD_5587
  Mrv1822 09091914012D          

 20 22  0  0  0  0            999 V2000
   -2.2044   -2.6321    0.0000 N   0  0  0  0  0  0  0  0  0  0  0  0
   -1.4292   -2.3500    0.0000 C   0  0  0  0  0  0  0  0  0  0  0  0
   -0.7972   -2.8803    0.0000 C   0  0  0  0  0  0  0  0  0  0  0  0
   -0.3847   -3.5947    0.0000 C   0  0  0  0  0  0  0  0  0  0  0  0
   -1.2097   -3.5947    0.0000 C   0  0  0  0  0  0  0  0  0  0  0  0
   -0.1652   -2.3500    0.0000 C   0  0  0  0  0  0  0  0  0  0  0  0
   -0.3085   -1.5375    0.0000 C   0  0  0  0  0  0  0  0  0  0  0  0
    0.3235   -1.0072    0.0000 C   0  0  0  0  0  0  0  0  0  0  0  0
    1.0988   -1.2894    0.0000 C   0  0  0  0  0  0  0  0  0  0  0  0
    1.2420   -2.1018    0.0000 C   0  0  0  0  0  0  0  0  0  0  0  0
    0.6101   -2.6321    0.0000 C   0  0  0  0  0  0  0  0  0  0  0  0
    0.1803   -0.1947    0.0000 C   0  0  0  0  0  0  0  0  0  0  0  0
   -0.5950    0.0874    0.0000 C   0  0  0  0  0  0  0  0  0  0  0  0
   -0.7382    0.8999    0.0000 C   0  0  0  0  0  0  0  0  0  0  0  0
   -0.1062    1.4302    0.0000 C   0  0  0  0  0  0  0  0  0  0  0  0
   -0.2495    2.2427    0.0000 Br  0  0  0  0  0  0  0  0  0  0  0  0
    0.6690    1.1480    0.0000 C   0  0  0  0  0  0  0  0  0  0  0  0
    1.3010    1.6783    0.0000 O   0  0  0  0  0  0  0  0  0  0  0  0
    0.8123    0.3356    0.0000 C   0  0  0  0  0  0  0  0  0  0  0  0
    1.5875    0.0534    0.0000 N   0  0  0  0  0  0  0  0  0  0  0  0
  1  2  1  0  0  0  0
  2  3  1  0  0  0  0
  3  4  1  0  0  0  0
  4  5  1  0  0  0  0
  3  5  1  0  0  0  0
  3  6  1  0  0  0  0
  6  7  2  0  0  0  0
  7  8  1  0  0  0  0
  8  9  2  0  0  0  0
  9 10  1  0  0  0  0
 10 11  2  0  0  0  0
  6 11  1  0  0  0  0
  8 12  1  0  0  0  0
 12 13  2  0  0  0  0
 13 14  1  0  0  0  0
 14 15  2  0  0  0  0
 15 16  1  0  0  0  0
 15 17  1  0  0  0  0
 17 18  1  0  0  0  0
 17 19  2  0  0  0  0
 12 19  1  0  0  0  0
 19 20  1  0  0  0  0
M  END
> <ID>
CPD_5587

$$$$
CPD_5592
  Mrv1822 09091914012D          

 25 28  0  0  0  0            999 V2000
   -2.2044   -2.6321    0.0000 N   0  0  0  0  0  0  0  0  0  0  0  0
   -1.4292   -2.3500    0.0000 C   0  0  0  0  0  0  0  0  0  0  0  0
   -0.7972   -2.8803    0.0000 C   0  0  0  0  0  0  0  0  0  0  0  0
   -0.3847   -3.5947    0.0000 C   0  0  0  0  0  0  0  0  0  0  0  0
   -1.2097   -3.5947    0.0000 C   0  0  0  0  0  0  0  0  0  0  0  0
   -0.1652   -2.3500    0.0000 C   0  0  0  0  0  0  0  0  0  0  0  0
   -0.3085   -1.5375    0.0000 C   0  0  0  0  0  0  0  0  0  0  0  0
    0.3235   -1.0072    0.0000 C   0  0  0  0  0  0  0  0  0  0  0  0
    1.0988   -1.2894    0.0000 C   0  0  0  0  0  0  0  0  0  0  0  0
    1.2420   -2.1018    0.0000 C   0  0  0  0  0  0  0  0  0  0  0  0
    0.6101   -2.6321    0.0000 C   0  0  0  0  0  0  0  0  0  0  0  0
    0.1803   -0.1947    0.0000 C   0  0  0  0  0  0  0  0  0  0  0  0
   -0.5950    0.0874    0.0000 C   0  0  0  0  0  0  0  0  0  0  0  0
   -0.7382    0.8999    0.0000 C   0  0  0  0  0  0  0  0  0  0  0  0
   -0.1062    1.4302    0.0000 C   0  0  0  0  0  0  0  0  0  0  0  0
    0.6690    1.1480    0.0000 C   0  0  0  0  0  0  0  0  0  0  0  0
    0.8123    0.3356    0.0000 C   0  0  0  0  0  0  0  0  0  0  0  0
   -1.5135    1.1821    0.0000 C   0  0  0  0  0  0  0  0  0  0  0  0
   -2.1974    0.7207    0.0000 N   0  0  0  0  0  0  0  0  0  0  0  0
   -2.8475    1.2287    0.0000 N   0  0  0  0  0  0  0  0  0  0  0  0
   -2.5654    2.0039    0.0000 C   0  0  0  0  0  0  0  0  0  0  0  0
   -1.7409    1.9751    0.0000 C   0  0  0  0  0  0  0  0  0  0  0  0
   -1.2330    2.6252    0.0000 C   0  0  0  0  0  0  0  0  0  0  0  0
   -1.5420    3.3901    0.0000 O   0  0  0  0  0  0  0  0  0  0  0  0
   -0.4160    2.5104    0.0000 O   0  0  0  0  0  0  0  0  0  0  0  0
  1  2  1  0  0  0  0
  2  3  1  0  0  0  0
  3  4  1  0  0  0  0
  4  5  1  0  0  0  0
  3  5  1  0  0  0  0
  3  6  1  0  0  0  0
  6  7  2  0  0  0  0
  7  8  1  0  0  0  0
  8  9  2  0  0  0  0
  9 10  1  0  0  0  0
 10 11  2  0  0  0  0
  6 11  1  0  0  0  0
  8 12  1  0  0  0  0
 12 13  2  0  0  0  0
 13 14  1  0  0  0  0
 14 15  2  0  0  0  0
 15 16  1  0  0  0  0
 16 17  2  0  0  0  0
 12 17  1  0  0  0  0
 14 18  1  0  0  0  0
 18 19  2  0  0  0  0
 19 20  1  0  0  0  0
 20 21  1  0  0  0  0
 21 22  2  0  0  0  0
 18 22  1  0  0  0  0
 22 23  1  0  0  0  0
 23 24  1  0  0  0  0
 23 25  2  0  0  0  0
M  END
> <ID>
CPD_5592

$$$$
CPD_5597
  Mrv1822 09091914012D          

 28 31  0  0  0  0            999 V2000
    2.7845    2.3479    0.0000 C   0  0  0  0  0  0  0  0  0  0  0  0
    2.0701    1.9354    0.0000 O   0  0  0  0  0  0  0  0  0  0  0  0
    1.3556    2.3479    0.0000 C   0  0  0  0  0  0  0  0  0  0  0  0
    1.3556    3.1729    0.0000 C   0  0  0  0  0  0  0  0  0  0  0  0
    0.6411    3.5854    0.0000 C   0  0  0  0  0  0  0  0  0  0  0  0
   -0.0734    3.1729    0.0000 C   0  0  0  0  0  0  0  0  0  0  0  0
   -0.7878    3.5854    0.0000 C   0  0  0  0  0  0  0  0  0  0  0  0
   -0.7878    4.4104    0.0000 C   0  0  0  0  0  0  0  0  0  0  0  0
   -0.0734    4.8229    0.0000 C   0  0  0  0  0  0  0  0  0  0  0  0
    0.6411    4.4104    0.0000 C   0  0  0  0  0  0  0  0  0  0  0  0
   -0.0734    2.3479    0.0000 C   0  0  0  0  0  0  0  0  0  0  0  0
   -0.7878    1.9354    0.0000 C   0  0  0  0  0  0  0  0  0  0  0  0
   -0.7878    1.1104    0.0000 C   0  0  0  0  0  0  0  0  0  0  0  0
   -1.5023    0.6979    0.0000 C   0  0  0  0  0  0  0  0  0  0  0  0
   -2.2168    1.1104    0.0000 C   0  0  0  0  0  0  0  0  0  0  0  0
   -3.0014    0.8555    0.0000 N   0  0  0  0  0  0  0  0  0  0  0  0
   -3.4863    1.5229    0.0000 C   0  0  0  0  0  0  0  0  0  0  0  0
   -4.3113    1.5229    0.0000 C   0  0  0  0  0  0  0  0  0  0  0  0
   -4.7238    0.8085    0.0000 C   0  0  0  0  0  0  0  0  0  0  0  0
   -5.5488    0.8085    0.0000 C   0  0  0  0  0  0  0  0  0  0  0  0
   -5.9613    0.0940    0.0000 O   0  0  0  0  0  0  0  0  0  0  0  0
   -5.9613    1.5229    0.0000 O   0  0  0  0  0  0  0  0  0  0  0  0
   -3.0014    2.1904    0.0000 N   0  0  0  0  0  0  0  0  0  0  0  0
   -3.2563    2.9750    0.0000 C   0  0  0  0  0  0  0  0  0  0  0  0
   -2.2168    1.9354    0.0000 C   0  0  0  0  0  0  0  0  0  0  0  0
   -1.5023    2.3479    0.0000 C   0  0  0  0  0  0  0  0  0  0  0  0
    0.6411    1.9354    0.0000 C   0  0  0  0  0  0  0  0  0  0  0  0
    0.6411    1.1104    0.0000 O   0  0  0  0  0  0  0  0  0  0  0  0
  1  2  1  0  0  0  0
  2  3  1  0  0  0  0
  3  4  2  0  0  0  0
  4  5  1  0  0  0  0
  5  6  2  0  0  0  0
  6  7  1  0  0  0  0
  7  8  2  0  0  0  0
  8  9  1  0  0  0  0
  9 10  2  0  0  0  0
  5 10  1  0  0  0  0
  6 11  1  0  0  0  0
 11 12  1  0  0  0  0
 12 13  2  0  0  0  0
 13 14  1  0  0  0  0
 14 15  2  0  0  0  0
 15 16  1  0  0  0  0
 16 17  2  0  0  0  0
 17 18  1  0  0  0  0
 18 19  1  0  0  0  0
 19 20  1  0  0  0  0
 20 21  1  0  0  0  0
 20 22  2  0  0  0  0
 17 23  1  0  0  0  0
 23 24  1  0  0  0  0
 23 25  1  0  0  0  0
 15 25  1  0  0  0  0
 25 26  2  0  0  0  0
 12 26  1  0  0  0  0
 11 27  2  0  0  0  0
  3 27  1  0  0  0  0
 27 28  1  0  0  0  0
M  END
> <ID>
CPD_5597

$$$$
CPD_5602
  Mrv1822 09091914012D          

 21 23  0  0  0  0            999 V2000
   -1.4289   -2.4750    0.0000 C   0  0  0  0  0  0  0  0  0  0  0  0
   -1.4289   -1.6500    0.0000 O   0  0  0  0  0  0  0  0  0  0  0  0
   -0.7145   -1.2375    0.0000 C   0  0  0  0  0  0  0  0  0  0  0  0
    0.0000   -1.6500    0.0000 C   0  0  0  0  0  0  0  0  0  0  0  0
    0.7145   -1.2375    0.0000 C   0  0  0  0  0  0  0  0  0  0  0  0
    0.7145   -0.4125    0.0000 C   0  0  0  0  0  0  0  0  0  0  0  0
    1.4289   -0.0000    0.0000 C   0  0  0  0  0  0  0  0  0  0  0  0
    2.1434   -0.4125    0.0000 C   0  0  0  0  0  0  0  0  0  0  0  0
    2.1434   -1.2375    0.0000 C   0  0  0  0  0  0  0  0  0  0  0  0
    1.4289   -1.6500    0.0000 C   0  0  0  0  0  0  0  0  0  0  0  0
    0.0000   -0.0000    0.0000 C   0  0  0  0  0  0  0  0  0  0  0  0
   -0.7145   -0.4125    0.0000 C   0  0  0  0  0  0  0  0  0  0  0  0
   -1.4289    0.0000    0.0000 O   0  0  0  0  0  0  0  0  0  0  0  0
    0.0000    0.8250    0.0000 C   0  0  0  0  0  0  0  0  0  0  0  0
   -0.7145    1.2375    0.0000 N   0  0  0  0  0  0  0  0  0  0  0  0
   -0.7145    2.0625    0.0000 C   0  0  0  0  0  0  0  0  0  0  0  0
    0.0000    2.4750    0.0000 C   0  0  0  0  0  0  0  0  0  0  0  0
    0.0000    3.3000    0.0000 F   0  0  0  0  0  0  0  0  0  0  0  0
    0.7145    2.0625    0.0000 C   0  0  0  0  0  0  0  0  0  0  0  0
    1.4289    2.4750    0.0000 C   0  0  0  0  0  0  0  0  0  0  0  0
    0.7145    1.2375    0.0000 N   0  0  0  0  0  0  0  0  0  0  0  0
  1  2  1  0  0  0  0
  2  3  1  0  0  0  0
  3  4  2  0  0  0  0
  4  5  1  0  0  0  0
  5  6  2  0  0  0  0
  6  7  1  0  0  0  0
  7  8  2  0  0  0  0
  8  9  1  0  0  0  0
  9 10  2  0  0  0  0
  5 10  1  0  0  0  0
  6 11  1  0  0  0  0
 11 12  2  0  0  0  0
  3 12  1  0  0  0  0
 12 13  1  0  0  0  0
 11 14  1  0  0  0  0
 14 15  2  0  0  0  0
 15 16  1  0  0  0  0
 16 17  2  0  0  0  0
 17 18  1  0  0  0  0
 17 19  1  0  0  0  0
 19 20  1  0  0  0  0
 19 21  2  0  0  0  0
 14 21  1  0  0  0  0
M  END
> <ID>
CPD_5602

$$$$
CPD_5607
  Mrv1822 09091914012D          

 26 29  0  0  0  0            999 V2000
   -1.4289   -2.4750    0.0000 C   0  0  0  0  0  0  0  0  0  0  0  0
   -1.4289   -1.6500    0.0000 O   0  0  0  0  0  0  0  0  0  0  0  0
   -0.7145   -1.2375    0.0000 C   0  0  0  0  0  0  0  0  0  0  0  0
    0.0000   -1.6500    0.0000 C   0  0  0  0  0  0  0  0  0  0  0  0
    0.7145   -1.2375    0.0000 C   0  0  0  0  0  0  0  0  0  0  0  0
    0.7145   -0.4125    0.0000 C   0  0  0  0  0  0  0  0  0  0  0  0
    1.4289   -0.0000    0.0000 C   0  0  0  0  0  0  0  0  0  0  0  0
    2.1434   -0.4125    0.0000 C   0  0  0  0  0  0  0  0  0  0  0  0
    2.1434   -1.2375    0.0000 C   0  0  0  0  0  0  0  0  0  0  0  0
    1.4289   -1.6500    0.0000 C   0  0  0  0  0  0  0  0  0  0  0  0
    0.0000   -0.0000    0.0000 C   0  0  0  0  0  0  0  0  0  0  0  0
    0.0000    0.8250    0.0000 C   0  0  0  0  0  0  0  0  0  0  0  0
   -0.6674    1.3099    0.0000 C   0  0  0  0  0  0  0  0  0  0  0  0
   -0.4125    2.0945    0.0000 N   0  0  0  0  0  0  0  0  0  0  0  0
    0.4125    2.0945    0.0000 N   0  0  0  0  0  0  0  0  0  0  0  0
    0.6674    1.3099    0.0000 C   0  0  0  0  0  0  0  0  0  0  0  0
   -0.8974    2.7620    0.0000 C   0  0  0  0  0  0  0  0  0  0  0  0
   -1.7179    2.6757    0.0000 C   0  0  0  0  0  0  0  0  0  0  0  0
   -2.0535    1.9221    0.0000 Cl  0  0  0  0  0  0  0  0  0  0  0  0
   -2.2028    3.3432    0.0000 C   0  0  0  0  0  0  0  0  0  0  0  0
   -1.8673    4.0969    0.0000 C   0  0  0  0  0  0  0  0  0  0  0  0
   -1.0468    4.1831    0.0000 C   0  0  0  0  0  0  0  0  0  0  0  0
   -0.5619    3.5157    0.0000 C   0  0  0  0  0  0  0  0  0  0  0  0
    0.2586    3.6019    0.0000 Cl  0  0  0  0  0  0  0  0  0  0  0  0
   -0.7145   -0.4125    0.0000 C   0  0  0  0  0  0  0  0  0  0  0  0
   -1.4289    0.0000    0.0000 O   0  0  0  0  0  0  0  0  0  0  0  0
  1  2  1  0  0  0  0
  2  3  1  0  0  0  0
  3  4  2  0  0  0  0
  4  5  1  0  0  0  0
  5  6  2  0  0  0  0
  6  7  1  0  0  0  0
  7  8  2  0  0  0  0
  8  9  1  0  0  0  0
  9 10  2  0  0  0  0
  5 10  1  0  0  0  0
  6 11  1  0  0  0  0
 11 12  1  0  0  0  0
 12 13  2  0  0  0  0
 13 14  1  0  0  0  0
 14 15  1  0  0  0  0
 15 16  2  0  0  0  0
 12 16  1  0  0  0  0
 14 17  1  0  0  0  0
 17 18  2  0  0  0  0
 18 19  1  0  0  0  0
 18 20  1  0  0  0  0
 20 21  2  0  0  0  0
 21 22  1  0  0  0  0
 22 23  2  0  0  0  0
 17 23  1  0  0  0  0
 23 24  1  0  0  0  0
 11 25  2  0  0  0  0
  3 25  1  0  0  0  0
 25 26  1  0  0  0  0
M  END
> <ID>
CPD_5607

$$$$
CPD_5612
  Mrv1822 09091914012D          

 31 34  0  0  0  0            999 V2000
   -1.4289   -2.4750    0.0000 C   0  0  0  0  0  0  0  0  0  0  0  0
   -1.4289   -1.6500    0.0000 O   0  0  0  0  0  0  0  0  0  0  0  0
   -0.7145   -1.2375    0.0000 C   0  0  0  0  0  0  0  0  0  0  0  0
    0.0000   -1.6500    0.0000 C   0  0  0  0  0  0  0  0  0  0  0  0
    0.7145   -1.2375    0.0000 C   0  0  0  0  0  0  0  0  0  0  0  0
    0.7145   -0.4125    0.0000 C   0  0  0  0  0  0  0  0  0  0  0  0
    1.4289   -0.0000    0.0000 C   0  0  0  0  0  0  0  0  0  0  0  0
    2.1434   -0.4125    0.0000 C   0  0  0  0  0  0  0  0  0  0  0  0
    2.1434   -1.2375    0.0000 C   0  0  0  0  0  0  0  0  0  0  0  0
    1.4289   -1.6500    0.0000 C   0  0  0  0  0  0  0  0  0  0  0  0
    0.0000   -0.0000    0.0000 C   0  0  0  0  0  0  0  0  0  0  0  0
   -0.7145   -0.4125    0.0000 C   0  0  0  0  0  0  0  0  0  0  0  0
   -1.4289    0.0000    0.0000 O   0  0  0  0  0  0  0  0  0  0  0  0
    0.0000    0.8250    0.0000 C   0  0  0  0  0  0  0  0  0  0  0  0
    0.7145    1.2375    0.0000 C   0  0  0  0  0  0  0  0  0  0  0  0
    0.7145    2.0625    0.0000 C   0  0  0  0  0  0  0  0  0  0  0  0
    1.4289    2.4750    0.0000 F   0  0  0  0  0  0  0  0  0  0  0  0
    0.0000    2.4750    0.0000 C   0  0  0  0  0  0  0  0  0  0  0  0
    0.0000    3.3000    0.0000 F   0  0  0  0  0  0  0  0  0  0  0  0
   -0.7145    2.0625    0.0000 C   0  0  0  0  0  0  0  0  0  0  0  0
   -0.7145    1.2375    0.0000 C   0  0  0  0  0  0  0  0  0  0  0  0
   -1.4289    0.8250    0.0000 C   0  0  0  0  0  0  0  0  0  0  0  0
   -1.9139    0.1576    0.0000 O   0  0  0  0  0  0  0  0  0  0  0  0
   -2.1434    1.2375    0.0000 N   0  0  0  0  0  0  0  0  0  0  0  0
   -2.1434    2.0625    0.0000 C   0  0  0  0  0  0  0  0  0  0  0  0
   -2.8579    2.4750    0.0000 C   0  0  0  0  0  0  0  0  0  0  0  0
   -2.8579    3.3000    0.0000 C   0  0  0  0  0  0  0  0  0  0  0  0
   -3.5724    3.7125    0.0000 N   0  0  0  0  0  0  0  0  0  0  0  0
   -2.1434    3.7125    0.0000 C   0  0  0  0  0  0  0  0  0  0  0  0
   -1.4289    3.3000    0.0000 C   0  0  0  0  0  0  0  0  0  0  0  0
   -1.4289    2.4750    0.0000 C   0  0  0  0  0  0  0  0  0  0  0  0
  1  2  1  0  0  0  0
  2  3  1  0  0  0  0
  3  4  2  0  0  0  0
  4  5  1  0  0  0  0
  5  6  2  0  0  0  0
  6  7  1  0  0  0  0
  7  8  2  0  0  0  0
  8  9  1  0  0  0  0
  9 10  2  0  0  0  0
  5 10  1  0  0  0  0
  6 11  1  0  0  0  0
 11 12  2  0  0  0  0
  3 12  1  0  0  0  0
 12 13  1  0  0  0  0
 11 14  1  0  0  0  0
 14 15  2  0  0  0  0
 15 16  1  0  0  0  0
 16 17  1  0  0  0  0
 16 18  2  0  0  0  0
 18 19  1  0  0  0  0
 18 20  1  0  0  0  0
 20 21  2  0  0  0  0
 14 21  1  0  0  0  0
 21 22  1  0  0  0  0
 22 23  2  0  0  0  0
 22 24  1  0  0  0  0
 24 25  1  0  0  0  0
 25 26  2  0  0  0  0
 26 27  1  0  0  0  0
 27 28  1  0  0  0  0
 27 29  2  0  0  0  0
 29 30  1  0  0  0  0
 30 31  2  0  0  0  0
 25 31  1  0  0  0  0
M  END
> <ID>
CPD_5612

$$$$
CPD_5617
  Mrv1822 09091914012D          

 27 29  0  0  0  0            999 V2000
   -2.1434   -1.2375    0.0000 C   0  0  0  0  0  0  0  0  0  0  0  0
   -1.4289   -1.6500    0.0000 N   0  0  0  0  0  0  0  0  0  0  0  0
   -0.7145   -1.2375    0.0000 C   0  0  0  0  0  0  0  0  0  0  0  0
    0.0000   -1.6500    0.0000 N   0  0  0  0  0  0  0  0  0  0  0  0
    0.7145   -1.2375    0.0000 C   0  0  0  0  0  0  0  0  0  0  0  0
    0.7145   -0.4125    0.0000 C   0  0  0  0  0  0  0  0  0  0  0  0
    1.4289   -0.0000    0.0000 C   0  0  0  0  0  0  0  0  0  0  0  0
    2.1434   -0.4125    0.0000 C   0  0  0  0  0  0  0  0  0  0  0  0
    2.1434   -1.2375    0.0000 C   0  0  0  0  0  0  0  0  0  0  0  0
    1.4289   -1.6500    0.0000 N   0  0  0  0  0  0  0  0  0  0  0  0
    2.8579   -0.0000    0.0000 C   0  0  0  0  0  0  0  0  0  0  0  0
    2.8579    0.8250    0.0000 C   0  0  0  0  0  0  0  0  0  0  0  0
    3.5724    1.2375    0.0000 C   0  0  0  0  0  0  0  0  0  0  0  0
    4.2868    0.8250    0.0000 C   0  0  0  0  0  0  0  0  0  0  0  0
    5.0013    1.2375    0.0000 F   0  0  0  0  0  0  0  0  0  0  0  0
    4.2868   -0.0000    0.0000 C   0  0  0  0  0  0  0  0  0  0  0  0
    3.5724   -0.4125    0.0000 C   0  0  0  0  0  0  0  0  0  0  0  0
    5.0013   -0.4125    0.0000 S   0  0  0  0  0  0  0  0  0  0  0  0
    4.5888   -1.1270    0.0000 O   0  0  0  0  0  0  0  0  0  0  0  0
    5.4138    0.3020    0.0000 O   0  0  0  0  0  0  0  0  0  0  0  0
    5.7158   -0.8250    0.0000 C   0  0  0  0  0  0  0  0  0  0  0  0
    6.4302   -0.4125    0.0000 C   0  0  0  0  0  0  0  0  0  0  0  0
    7.1447   -0.0000    0.0000 N   0  0  0  0  0  0  0  0  0  0  0  0
    0.0000   -0.0000    0.0000 C   0  0  0  0  0  0  0  0  0  0  0  0
   -0.7145   -0.4125    0.0000 C   0  0  0  0  0  0  0  0  0  0  0  0
   -1.4289    0.0000    0.0000 C   0  0  0  0  0  0  0  0  0  0  0  0
   -2.1434    0.4125    0.0000 N   0  0  0  0  0  0  0  0  0  0  0  0
  1  2  1  0  0  0  0
  2  3  1  0  0  0  0
  3  4  2  0  0  0  0
  4  5  1  0  0  0  0
  5  6  2  0  0  0  0
  6  7  1  0  0  0  0
  7  8  2  0  0  0  0
  8  9  1  0  0  0  0
  9 10  2  0  0  0  0
  5 10  1  0  0  0  0
  8 11  1  0  0  0  0
 11 12  2  0  0  0  0
 12 13  1  0  0  0  0
 13 14  2  0  0  0  0
 14 15  1  0  0  0  0
 14 16  1  0  0  0  0
 16 17  2  0  0  0  0
 11 17  1  0  0  0  0
 16 18  1  0  0  0  0
 18 19  2  0  0  0  0
 18 20  2  0  0  0  0
 18 21  1  0  0  0  0
 21 22  1  0  0  0  0
 22 23  3  0  0  0  0
  6 24  1  0  0  0  0
 24 25  2  0  0  0  0
  3 25  1  0  0  0  0
 25 26  1  0  0  0  0
 26 27  3  0  0  0  0
M  END
> <ID>
CPD_5617

$$$$
CPD_5622
  Mrv1822 09091914012D          

 29 33  0  0  0  0            999 V2000
   -5.0013    2.0625    0.0000 C   0  0  0  0  0  0  0  0  0  0  0  0
   -5.0013    1.2375    0.0000 N   0  0  0  0  0  0  0  0  0  0  0  0
   -4.2868    0.8250    0.0000 C   0  0  0  0  0  0  0  0  0  0  0  0
   -4.2868    0.0000    0.0000 N   0  0  0  0  0  0  0  0  0  0  0  0
   -3.5724   -0.4125    0.0000 C   0  0  0  0  0  0  0  0  0  0  0  0
   -2.8579    0.0000    0.0000 C   0  0  0  0  0  0  0  0  0  0  0  0
   -2.1434   -0.4125    0.0000 C   0  0  0  0  0  0  0  0  0  0  0  0
   -2.1434   -1.2375    0.0000 C   0  0  0  0  0  0  0  0  0  0  0  0
   -2.8579   -1.6500    0.0000 C   0  0  0  0  0  0  0  0  0  0  0  0
   -3.5724   -1.2375    0.0000 N   0  0  0  0  0  0  0  0  0  0  0  0
   -1.4289   -1.6500    0.0000 C   0  0  0  0  0  0  0  0  0  0  0  0
   -1.4289   -2.4750    0.0000 C   0  0  0  0  0  0  0  0  0  0  0  0
   -0.7145   -2.8875    0.0000 C   0  0  0  0  0  0  0  0  0  0  0  0
   -0.0000   -2.4750    0.0000 C   0  0  0  0  0  0  0  0  0  0  0  0
    0.7145   -2.8875    0.0000 N   0  0  0  0  0  0  0  0  0  0  0  0
    1.4289   -2.4750    0.0000 C   0  0  0  0  0  0  0  0  0  0  0  0
    1.4289   -1.6500    0.0000 C   0  0  0  0  0  0  0  0  0  0  0  0
    2.1434   -1.2375    0.0000 C   0  0  0  0  0  0  0  0  0  0  0  0
    2.8579   -1.6500    0.0000 N   0  0  0  0  0  0  0  0  0  0  0  0
    2.8579   -2.4750    0.0000 C   0  0  0  0  0  0  0  0  0  0  0  0
    2.1434   -2.8875    0.0000 C   0  0  0  0  0  0  0  0  0  0  0  0
    0.7145   -1.2375    0.0000 C   0  0  0  0  0  0  0  0  0  0  0  0
    0.7145   -0.4125    0.0000 O   0  0  0  0  0  0  0  0  0  0  0  0
    0.0000   -1.6500    0.0000 C   0  0  0  0  0  0  0  0  0  0  0  0
   -0.7145   -1.2375    0.0000 C   0  0  0  0  0  0  0  0  0  0  0  0
   -2.8579    0.8250    0.0000 C   0  0  0  0  0  0  0  0  0  0  0  0
   -3.5724    1.2375    0.0000 C   0  0  0  0  0  0  0  0  0  0  0  0
   -3.5724    2.0625    0.0000 C   0  0  0  0  0  0  0  0  0  0  0  0
   -3.5724    2.8875    0.0000 N   0  0  0  0  0  0  0  0  0  0  0  0
  1  2  1  0  0  0  0
  2  3  1  0  0  0  0
  3  4  2  0  0  0  0
  4  5  1  0  0  0  0
  5  6  2  0  0  0  0
  6  7  1  0  0  0  0
  7  8  2  0  0  0  0
  8  9  1  0  0  0  0
  9 10  2  0  0  0  0
  5 10  1  0  0  0  0
  8 11  1  0  0  0  0
 11 12  2  0  0  0  0
 12 13  1  0  0  0  0
 13 14  2  0  0  0  0
 14 15  1  0  0  0  0
 15 16  1  0  0  0  0
 16 17  2  0  0  0  0
 17 18  1  0  0  0  0
 18 19  1  0  0  0  0
 19 20  1  0  0  0  0
 20 21  1  0  0  0  0
 16 21  1  0  0  0  0
 17 22  1  0  0  0  0
 22 23  2  0  0  0  0
 22 24  1  0  0  0  0
 14 24  1  0  0  0  0
 24 25  2  0  0  0  0
 11 25  1  0  0  0  0
  6 26  1  0  0  0  0
 26 27  2  0  0  0  0
  3 27  1  0  0  0  0
 27 28  1  0  0  0  0
 28 29  3  0  0  0  0
M  END
> <ID>
CPD_5622

$$$$
CPD_5627
  Mrv1822 09091914012D          

 24 26  0  0  0  0            999 V2000
   -2.1434   -1.2375    0.0000 C   0  0  0  0  0  0  0  0  0  0  0  0
   -1.4289   -1.6500    0.0000 N   0  0  0  0  0  0  0  0  0  0  0  0
   -0.7145   -1.2375    0.0000 C   0  0  0  0  0  0  0  0  0  0  0  0
    0.0000   -1.6500    0.0000 N   0  0  0  0  0  0  0  0  0  0  0  0
    0.7145   -1.2375    0.0000 C   0  0  0  0  0  0  0  0  0  0  0  0
    0.7145   -0.4125    0.0000 C   0  0  0  0  0  0  0  0  0  0  0  0
    1.4289   -0.0000    0.0000 C   0  0  0  0  0  0  0  0  0  0  0  0
    2.1434   -0.4125    0.0000 C   0  0  0  0  0  0  0  0  0  0  0  0
    2.1434   -1.2375    0.0000 C   0  0  0  0  0  0  0  0  0  0  0  0
    1.4289   -1.6500    0.0000 N   0  0  0  0  0  0  0  0  0  0  0  0
    2.8579   -0.0000    0.0000 C   0  0  0  0  0  0  0  0  0  0  0  0
    2.9441    0.8205    0.0000 C   0  0  0  0  0  0  0  0  0  0  0  0
    3.7511    0.9920    0.0000 S   0  0  0  0  0  0  0  0  0  0  0  0
    4.1636    0.2775    0.0000 C   0  0  0  0  0  0  0  0  0  0  0  0
    4.9841    0.1913    0.0000 C   0  0  0  0  0  0  0  0  0  0  0  0
    5.4690    0.8587    0.0000 O   0  0  0  0  0  0  0  0  0  0  0  0
    5.3196   -0.5624    0.0000 O   0  0  0  0  0  0  0  0  0  0  0  0
    6.1401   -0.6486    0.0000 C   0  0  0  0  0  0  0  0  0  0  0  0
    3.6116   -0.3356    0.0000 C   0  0  0  0  0  0  0  0  0  0  0  0
    3.7831   -1.1425    0.0000 Br  0  0  0  0  0  0  0  0  0  0  0  0
    0.0000   -0.0000    0.0000 C   0  0  0  0  0  0  0  0  0  0  0  0
   -0.7145   -0.4125    0.0000 C   0  0  0  0  0  0  0  0  0  0  0  0
   -1.4289    0.0000    0.0000 C   0  0  0  0  0  0  0  0  0  0  0  0
   -2.1434    0.4125    0.0000 N   0  0  0  0  0  0  0  0  0  0  0  0
  1  2  1  0  0  0  0
  2  3  1  0  0  0  0
  3  4  2  0  0  0  0
  4  5  1  0  0  0  0
  5  6  2  0  0  0  0
  6  7  1  0  0  0  0
  7  8  2  0  0  0  0
  8  9  1  0  0  0  0
  9 10  2  0  0  0  0
  5 10  1  0  0  0  0
  8 11  1  0  0  0  0
 11 12  2  0  0  0  0
 12 13  1  0  0  0  0
 13 14  1  0  0  0  0
 14 15  1  0  0  0  0
 15 16  2  0  0  0  0
 15 17  1  0  0  0  0
 17 18  1  0  0  0  0
 14 19  2  0  0  0  0
 11 19  1  0  0  0  0
 19 20  1  0  0  0  0
  6 21  1  0  0  0  0
 21 22  2  0  0  0  0
  3 22  1  0  0  0  0
 22 23  1  0  0  0  0
 23 24  3  0  0  0  0
M  END
> <ID>
CPD_5627

$$$$
CPD_5632
  Mrv1822 09091914012D          

 18 20  0  0  0  0            999 V2000
    7.4592    4.3803    0.0000 C   0  0  0  0  0  0  0  0  0  0  0  0
    6.6342    4.3803    0.0000 O   0  0  0  0  0  0  0  0  0  0  0  0
    6.2217    3.6658    0.0000 C   0  0  0  0  0  0  0  0  0  0  0  0
    6.6342    2.9513    0.0000 C   0  0  0  0  0  0  0  0  0  0  0  0
    7.4592    2.9513    0.0000 F   0  0  0  0  0  0  0  0  0  0  0  0
    6.2217    2.2368    0.0000 C   0  0  0  0  0  0  0  0  0  0  0  0
    5.3967    2.2368    0.0000 C   0  0  0  0  0  0  0  0  0  0  0  0
    4.9842    2.9513    0.0000 C   0  0  0  0  0  0  0  0  0  0  0  0
    4.1592    2.9513    0.0000 C   0  0  0  0  0  0  0  0  0  0  0  0
    3.7467    3.6658    0.0000 O   0  0  0  0  0  0  0  0  0  0  0  0
    2.9217    3.6658    0.0000 C   0  0  0  0  0  0  0  0  0  0  0  0
    2.0967    3.6658    0.0000 C   0  0  0  0  0  0  0  0  0  0  0  0
    2.0967    4.4908    0.0000 N   0  0  0  0  0  0  0  0  0  0  0  0
    2.9217    4.4908    0.0000 C   0  0  0  0  0  0  0  0  0  0  0  0
    2.9217    2.8408    0.0000 C   0  0  0  0  0  0  0  0  0  0  0  0
    3.3342    2.1263    0.0000 C   0  0  0  0  0  0  0  0  0  0  0  0
    2.5092    2.1263    0.0000 C   0  0  0  0  0  0  0  0  0  0  0  0
    5.3967    3.6658    0.0000 C   0  0  0  0  0  0  0  0  0  0  0  0
  1  2  1  0  0  0  0
  2  3  1  0  0  0  0
  3  4  2  0  0  0  0
  4  5  1  0  0  0  0
  4  6  1  0  0  0  0
  6  7  2  0  0  0  0
  7  8  1  0  0  0  0
  8  9  1  0  0  0  0
  9 10  1  0  0  0  0
 10 11  1  0  0  0  0
 11 12  1  0  0  0  0
 12 13  1  0  0  0  0
 13 14  1  0  0  0  0
 11 14  1  0  0  0  0
 11 15  1  0  0  0  0
 15 16  1  0  0  0  0
 16 17  1  0  0  0  0
 15 17  1  0  0  0  0
  8 18  2  0  0  0  0
  3 18  1  0  0  0  0
M  END
> <ID>
CPD_5632

$$$$
CPD_5637
  Mrv1822 09091914012D          

 19 21  0  0  0  0            999 V2000
    2.3474    0.3145    0.0000 C   0  0  0  0  0  0  0  0  0  0  0  0
    1.9349    1.0290    0.0000 C   0  0  0  0  0  0  0  0  0  0  0  0
    1.1099    1.0290    0.0000 C   0  0  0  0  0  0  0  0  0  0  0  0
    0.6974    1.7434    0.0000 C   0  0  0  0  0  0  0  0  0  0  0  0
    1.1099    2.4579    0.0000 C   0  0  0  0  0  0  0  0  0  0  0  0
    1.9349    2.4579    0.0000 C   0  0  0  0  0  0  0  0  0  0  0  0
    2.3474    1.7434    0.0000 C   0  0  0  0  0  0  0  0  0  0  0  0
    3.1724    1.7434    0.0000 C   0  0  0  0  0  0  0  0  0  0  0  0
    0.6974    3.1724    0.0000 C   0  0  0  0  0  0  0  0  0  0  0  0
    1.1099    3.8868    0.0000 O   0  0  0  0  0  0  0  0  0  0  0  0
   -0.1276    3.1724    0.0000 C   0  0  0  0  0  0  0  0  0  0  0  0
   -0.5401    3.8868    0.0000 O   0  0  0  0  0  0  0  0  0  0  0  0
   -1.3651    3.8868    0.0000 C   0  0  0  0  0  0  0  0  0  0  0  0
   -2.1901    3.8868    0.0000 C   0  0  0  0  0  0  0  0  0  0  0  0
   -2.1901    4.7118    0.0000 N   0  0  0  0  0  0  0  0  0  0  0  0
   -1.3651    4.7118    0.0000 C   0  0  0  0  0  0  0  0  0  0  0  0
   -1.3651    3.0618    0.0000 C   0  0  0  0  0  0  0  0  0  0  0  0
   -0.9526    2.3474    0.0000 C   0  0  0  0  0  0  0  0  0  0  0  0
   -1.7776    2.3474    0.0000 C   0  0  0  0  0  0  0  0  0  0  0  0
  1  2  1  0  0  0  0
  2  3  2  0  0  0  0
  3  4  1  0  0  0  0
  4  5  2  0  0  0  0
  5  6  1  0  0  0  0
  6  7  2  0  0  0  0
  2  7  1  0  0  0  0
  7  8  1  0  0  0  0
  5  9  1  0  0  0  0
  9 10  2  0  0  0  0
  9 11  1  0  0  0  0
 11 12  1  0  0  0  0
 12 13  1  0  0  0  0
 13 14  1  0  0  0  0
 14 15  1  0  0  0  0
 15 16  1  0  0  0  0
 13 16  1  0  0  0  0
 13 17  1  0  0  0  0
 17 18  1  0  0  0  0
 18 19  1  0  0  0  0
 17 19  1  0  0  0  0
M  END
> <ID>
CPD_5637

$$$$
CPD_5642
  Mrv1822 09091914012D          

 29 32  0  0  0  0            999 V2000
    4.2868    3.3000    0.0000 C   0  0  0  0  0  0  0  0  0  0  0  0
    4.2868    2.4750    0.0000 C   0  0  0  0  0  0  0  0  0  0  0  0
    3.5724    2.0625    0.0000 C   0  0  0  0  0  0  0  0  0  0  0  0
    2.8579    2.4750    0.0000 N   0  0  0  0  0  0  0  0  0  0  0  0
    2.1042    2.1394    0.0000 C   0  0  0  0  0  0  0  0  0  0  0  0
    1.9327    1.3325    0.0000 N   0  0  0  0  0  0  0  0  0  0  0  0
    1.5522    2.7525    0.0000 C   0  0  0  0  0  0  0  0  0  0  0  0
    1.9647    3.4670    0.0000 N   0  0  0  0  0  0  0  0  0  0  0  0
    2.7716    3.2955    0.0000 C   0  0  0  0  0  0  0  0  0  0  0  0
    3.3847    3.8475    0.0000 C   0  0  0  0  0  0  0  0  0  0  0  0
    5.0013    2.0625    0.0000 O   0  0  0  0  0  0  0  0  0  0  0  0
    5.7158    2.4750    0.0000 C   0  0  0  0  0  0  0  0  0  0  0  0
    6.4302    2.0625    0.0000 C   0  0  0  0  0  0  0  0  0  0  0  0
    6.4302    1.2375    0.0000 O   0  0  0  0  0  0  0  0  0  0  0  0
    7.1447    2.4750    0.0000 N   0  0  0  0  0  0  0  0  0  0  0  0
    7.8592    2.0625    0.0000 C   0  0  0  0  0  0  0  0  0  0  0  0
    8.5737    2.4750    0.0000 C   0  0  0  0  0  0  0  0  0  0  0  0
    8.5737    3.3000    0.0000 C   0  0  0  0  0  0  0  0  0  0  0  0
    9.2881    3.7125    0.0000 C   0  0  0  0  0  0  0  0  0  0  0  0
   10.0026    3.3000    0.0000 C   0  0  0  0  0  0  0  0  0  0  0  0
   10.0026    2.4750    0.0000 C   0  0  0  0  0  0  0  0  0  0  0  0
    9.2881    2.0625    0.0000 C   0  0  0  0  0  0  0  0  0  0  0  0
    9.2881    1.2375    0.0000 N   0  0  0  0  0  0  0  0  0  0  0  0
    8.5737    0.8250    0.0000 C   0  0  0  0  0  0  0  0  0  0  0  0
    8.5737    0.0000    0.0000 C   0  0  0  0  0  0  0  0  0  0  0  0
    7.8592   -0.4125    0.0000 C   0  0  0  0  0  0  0  0  0  0  0  0
    7.1447    0.0000    0.0000 C   0  0  0  0  0  0  0  0  0  0  0  0
    7.1447    0.8250    0.0000 C   0  0  0  0  0  0  0  0  0  0  0  0
    7.8592    1.2375    0.0000 C   0  0  0  0  0  0  0  0  0  0  0  0
  1  2  1  0  0  0  0
  2  3  1  0  0  0  0
  3  4  1  0  0  0  0
  4  5  1  0  0  0  0
  5  6  1  0  0  0  0
  5  7  2  0  0  0  0
  7  8  1  0  0  0  0
  8  9  2  0  0  0  0
  4  9  1  0  0  0  0
  9 10  1  0  0  0  0
  2 11  1  0  0  0  0
 11 12  1  0  0  0  0
 12 13  1  0  0  0  0
 13 14  2  0  0  0  0
 13 15  1  0  0  0  0
 15 16  1  0  0  0  0
 16 17  2  0  0  0  0
 17 18  1  0  0  0  0
 18 19  2  0  0  0  0
 19 20  1  0  0  0  0
 20 21  2  0  0  0  0
 21 22  1  0  0  0  0
 17 22  1  0  0  0  0
 22 23  2  0  0  0  0
 23 24  1  0  0  0  0
 24 25  2  0  0  0  0
 25 26  1  0  0  0  0
 26 27  2  0  0  0  0
 27 28  1  0  0  0  0
 28 29  2  0  0  0  0
 16 29  1  0  0  0  0
 24 29  1  0  0  0  0
M  END
> <ID>
CPD_5642

$$$$
CPD_5647
  Mrv1822 09091914012D          

 25 27  0  0  0  0            999 V2000
   -2.4506   -2.2116    0.0000 C   0  0  0  0  0  0  0  0  0  0  0  0
   -2.4506   -3.0366    0.0000 C   0  0  0  0  0  0  0  0  0  0  0  0
   -3.1650   -3.4491    0.0000 C   0  0  0  0  0  0  0  0  0  0  0  0
   -3.8795   -3.0366    0.0000 N   0  0  0  0  0  0  0  0  0  0  0  0
   -4.6332   -3.3722    0.0000 C   0  0  0  0  0  0  0  0  0  0  0  0
   -4.8047   -4.1792    0.0000 N   0  0  0  0  0  0  0  0  0  0  0  0
   -5.1852   -2.7591    0.0000 C   0  0  0  0  0  0  0  0  0  0  0  0
   -4.7727   -2.0446    0.0000 N   0  0  0  0  0  0  0  0  0  0  0  0
   -3.9657   -2.2161    0.0000 C   0  0  0  0  0  0  0  0  0  0  0  0
   -3.3526   -1.6641    0.0000 C   0  0  0  0  0  0  0  0  0  0  0  0
   -1.7361   -3.4491    0.0000 O   0  0  0  0  0  0  0  0  0  0  0  0
   -1.0216   -3.0366    0.0000 C   0  0  0  0  0  0  0  0  0  0  0  0
   -0.3072   -3.4491    0.0000 C   0  0  0  0  0  0  0  0  0  0  0  0
   -0.3072   -4.2741    0.0000 O   0  0  0  0  0  0  0  0  0  0  0  0
    0.4073   -3.0366    0.0000 C   0  0  0  0  0  0  0  0  0  0  0  0
    1.1610   -3.3722    0.0000 C   0  0  0  0  0  0  0  0  0  0  0  0
    1.3325   -4.1792    0.0000 C   0  0  0  0  0  0  0  0  0  0  0  0
    1.7130   -2.7591    0.0000 C   0  0  0  0  0  0  0  0  0  0  0  0
    1.3005   -2.0446    0.0000 C   0  0  0  0  0  0  0  0  0  0  0  0
    0.4936   -2.2161    0.0000 S   0  0  0  0  0  0  0  0  0  0  0  0
    1.7130   -1.3301    0.0000 C   0  0  0  0  0  0  0  0  0  0  0  0
    2.5380   -1.3301    0.0000 C   0  0  0  0  0  0  0  0  0  0  0  0
    2.9505   -2.0446    0.0000 C   0  0  0  0  0  0  0  0  0  0  0  0
    3.7755   -2.0446    0.0000 C   0  0  0  0  0  0  0  0  0  0  0  0
    2.5380   -2.7591    0.0000 C   0  0  0  0  0  0  0  0  0  0  0  0
  1  2  1  0  0  0  0
  2  3  1  0  0  0  0
  3  4  1  0  0  0  0
  4  5  1  0  0  0  0
  5  6  1  0  0  0  0
  5  7  2  0  0  0  0
  7  8  1  0  0  0  0
  8  9  2  0  0  0  0
  4  9  1  0  0  0  0
  9 10  1  0  0  0  0
  2 11  1  0  0  0  0
 11 12  1  0  0  0  0
 12 13  1  0  0  0  0
 13 14  2  0  0  0  0
 13 15  1  0  0  0  0
 15 16  2  0  0  0  0
 16 17  1  0  0  0  0
 16 18  1  0  0  0  0
 18 19  2  0  0  0  0
 19 20  1  0  0  0  0
 15 20  1  0  0  0  0
 19 21  1  0  0  0  0
 21 22  2  0  0  0  0
 22 23  1  0  0  0  0
 23 24  1  0  0  0  0
 23 25  2  0  0  0  0
 18 25  1  0  0  0  0
M  END
> <ID>
CPD_5647

$$$$
CPD_5652
  Mrv1822 09091914012D          

 23 25  0  0  0  0            999 V2000
    1.4289   -1.6500    0.0000 C   0  0  0  0  0  0  0  0  0  0  0  0
    1.4289   -2.4750    0.0000 C   0  0  0  0  0  0  0  0  0  0  0  0
    0.7145   -2.8875    0.0000 C   0  0  0  0  0  0  0  0  0  0  0  0
    0.0000   -2.4750    0.0000 N   0  0  0  0  0  0  0  0  0  0  0  0
   -0.7537   -2.8106    0.0000 C   0  0  0  0  0  0  0  0  0  0  0  0
   -0.9252   -3.6175    0.0000 C   0  0  0  0  0  0  0  0  0  0  0  0
   -1.3057   -2.1975    0.0000 N   0  0  0  0  0  0  0  0  0  0  0  0
   -0.8932   -1.4830    0.0000 C   0  0  0  0  0  0  0  0  0  0  0  0
   -0.0862   -1.6545    0.0000 C   0  0  0  0  0  0  0  0  0  0  0  0
    0.5269   -1.1025    0.0000 N   0  0  0  0  0  0  0  0  0  0  0  0
    2.1434   -2.8875    0.0000 O   0  0  0  0  0  0  0  0  0  0  0  0
    2.8579   -2.4750    0.0000 C   0  0  0  0  0  0  0  0  0  0  0  0
    3.5724   -2.8875    0.0000 C   0  0  0  0  0  0  0  0  0  0  0  0
    4.2868   -2.4750    0.0000 C   0  0  0  0  0  0  0  0  0  0  0  0
    5.0013   -2.8875    0.0000 C   0  0  0  0  0  0  0  0  0  0  0  0
    5.0013   -3.7125    0.0000 C   0  0  0  0  0  0  0  0  0  0  0  0
    4.2868   -4.1250    0.0000 C   0  0  0  0  0  0  0  0  0  0  0  0
    3.5724   -3.7125    0.0000 C   0  0  0  0  0  0  0  0  0  0  0  0
    5.7158   -4.1250    0.0000 N   0  0  0  0  0  0  0  0  0  0  0  0
    6.4694   -3.7894    0.0000 C   0  0  0  0  0  0  0  0  0  0  0  0
    7.0215   -4.4025    0.0000 C   0  0  0  0  0  0  0  0  0  0  0  0
    6.6090   -5.1170    0.0000 C   0  0  0  0  0  0  0  0  0  0  0  0
    5.8020   -4.9455    0.0000 N   0  0  0  0  0  0  0  0  0  0  0  0
  1  2  1  0  0  0  0
  2  3  1  0  0  0  0
  3  4  1  0  0  0  0
  4  5  1  0  0  0  0
  5  6  1  0  0  0  0
  5  7  2  0  0  0  0
  7  8  1  0  0  0  0
  8  9  2  0  0  0  0
  4  9  1  0  0  0  0
  9 10  1  0  0  0  0
  2 11  1  0  0  0  0
 11 12  1  0  0  0  0
 12 13  1  0  0  0  0
 13 14  2  0  0  0  0
 14 15  1  0  0  0  0
 15 16  2  0  0  0  0
 16 17  1  0  0  0  0
 17 18  2  0  0  0  0
 13 18  1  0  0  0  0
 16 19  1  0  0  0  0
 19 20  1  0  0  0  0
 20 21  2  0  0  0  0
 21 22  1  0  0  0  0
 22 23  2  0  0  0  0
 19 23  1  0  0  0  0
M  END
> <ID>
CPD_5652

$$$$
CPD_5657
  Mrv1822 09091914012D          

 30 33  0  0  0  0            999 V2000
   -6.2210   -3.0083    0.0000 C   0  0  0  0  0  0  0  0  0  0  0  0
   -6.2210   -2.1833    0.0000 C   0  0  0  0  0  0  0  0  0  0  0  0
   -5.5065   -1.7708    0.0000 N   0  0  0  0  0  0  0  0  0  0  0  0
   -4.7920   -2.1833    0.0000 C   0  0  0  0  0  0  0  0  0  0  0  0
   -4.0776   -1.7708    0.0000 C   0  0  0  0  0  0  0  0  0  0  0  0
   -4.0776   -0.9458    0.0000 N   0  0  0  0  0  0  0  0  0  0  0  0
   -3.3631   -2.1833    0.0000 C   0  0  0  0  0  0  0  0  0  0  0  0
   -3.3631   -3.0083    0.0000 C   0  0  0  0  0  0  0  0  0  0  0  0
   -4.0776   -3.4208    0.0000 C   0  0  0  0  0  0  0  0  0  0  0  0
   -4.7920   -3.0083    0.0000 C   0  0  0  0  0  0  0  0  0  0  0  0
   -2.6486   -3.4208    0.0000 C   0  0  0  0  0  0  0  0  0  0  0  0
   -2.2361   -2.7063    0.0000 F   0  0  0  0  0  0  0  0  0  0  0  0
   -3.0611   -4.1353    0.0000 F   0  0  0  0  0  0  0  0  0  0  0  0
   -1.9341   -3.8333    0.0000 C   0  0  0  0  0  0  0  0  0  0  0  0
   -1.9341   -4.6583    0.0000 C   0  0  0  0  0  0  0  0  0  0  0  0
   -1.2197   -5.0708    0.0000 C   0  0  0  0  0  0  0  0  0  0  0  0
   -1.2197   -5.8958    0.0000 C   0  0  0  0  0  0  0  0  0  0  0  0
   -1.9341   -6.3083    0.0000 C   0  0  0  0  0  0  0  0  0  0  0  0
   -2.6486   -5.8958    0.0000 C   0  0  0  0  0  0  0  0  0  0  0  0
   -2.6486   -5.0708    0.0000 C   0  0  0  0  0  0  0  0  0  0  0  0
   -1.9341   -7.1333    0.0000 C   0  0  0  0  0  0  0  0  0  0  0  0
   -1.3508   -7.7167    0.0000 C   0  0  0  0  0  0  0  0  0  0  0  0
   -1.9341   -8.3000    0.0000 C   0  0  0  0  0  0  0  0  0  0  0  0
   -2.5175   -7.7167    0.0000 C   0  0  0  0  0  0  0  0  0  0  0  0
   -6.9354   -1.7708    0.0000 C   0  0  0  0  0  0  0  0  0  0  0  0
   -7.6499   -2.1833    0.0000 C   0  0  0  0  0  0  0  0  0  0  0  0
   -8.3644   -1.7708    0.0000 C   0  0  0  0  0  0  0  0  0  0  0  0
   -8.3644   -0.9458    0.0000 C   0  0  0  0  0  0  0  0  0  0  0  0
   -7.6499   -0.5333    0.0000 C   0  0  0  0  0  0  0  0  0  0  0  0
   -6.9354   -0.9458    0.0000 C   0  0  0  0  0  0  0  0  0  0  0  0
  1  2  1  0  0  0  0
  2  3  1  0  0  0  0
  3  4  1  0  0  0  0
  4  5  2  0  0  0  0
  5  6  1  0  0  0  0
  5  7  1  0  0  0  0
  7  8  2  0  0  0  0
  8  9  1  0  0  0  0
  9 10  2  0  0  0  0
  4 10  1  0  0  0  0
  8 11  1  0  0  0  0
 11 12  1  0  0  0  0
 11 13  1  0  0  0  0
 11 14  1  0  0  0  0
 14 15  1  0  0  0  0
 15 16  2  0  0  0  0
 16 17  1  0  0  0  0
 17 18  2  0  0  0  0
 18 19  1  0  0  0  0
 19 20  2  0  0  0  0
 15 20  1  0  0  0  0
 18 21  1  0  0  0  0
 21 22  1  0  0  0  0
 22 23  1  0  0  0  0
 23 24  1  0  0  0  0
 21 24  1  0  0  0  0
  2 25  1  0  0  0  0
 25 26  2  0  0  0  0
 26 27  1  0  0  0  0
 27 28  2  0  0  0  0
 28 29  1  0  0  0  0
 29 30  2  0  0  0  0
 25 30  1  0  0  0  0
M  END
> <ID>
CPD_5657

$$$$
CPD_5662
  Mrv1822 09091914012D          

 24 26  0  0  0  0            999 V2000
   -4.2868    3.3000    0.0000 O   0  0  0  0  0  0  0  0  0  0  0  0
   -3.5724    2.8875    0.0000 C   0  0  0  0  0  0  0  0  0  0  0  0
   -2.8579    3.3000    0.0000 C   0  0  0  0  0  0  0  0  0  0  0  0
   -2.1434    2.8875    0.0000 C   0  0  0  0  0  0  0  0  0  0  0  0
   -2.1434    2.0625    0.0000 C   0  0  0  0  0  0  0  0  0  0  0  0
   -2.8579    1.6500    0.0000 C   0  0  0  0  0  0  0  0  0  0  0  0
   -3.5724    2.0625    0.0000 C   0  0  0  0  0  0  0  0  0  0  0  0
   -1.4289    1.6500    0.0000 S   0  0  0  0  0  0  0  0  0  0  0  0
   -1.8414    0.9355    0.0000 O   0  0  0  0  0  0  0  0  0  0  0  0
   -1.0164    2.3645    0.0000 O   0  0  0  0  0  0  0  0  0  0  0  0
   -0.7145    1.2375    0.0000 C   0  0  0  0  0  0  0  0  0  0  0  0
   -1.1270    0.5230    0.0000 F   0  0  0  0  0  0  0  0  0  0  0  0
   -0.3020    1.9520    0.0000 F   0  0  0  0  0  0  0  0  0  0  0  0
    0.0000    0.8250    0.0000 C   0  0  0  0  0  0  0  0  0  0  0  0
    0.0000   -0.0000    0.0000 C   0  0  0  0  0  0  0  0  0  0  0  0
   -0.7145   -0.4125    0.0000 C   0  0  0  0  0  0  0  0  0  0  0  0
   -0.7145   -1.2375    0.0000 N   0  0  0  0  0  0  0  0  0  0  0  0
    0.0000   -1.6500    0.0000 C   0  0  0  0  0  0  0  0  0  0  0  0
    0.7145   -1.2375    0.0000 C   0  0  0  0  0  0  0  0  0  0  0  0
    0.7145   -0.4125    0.0000 C   0  0  0  0  0  0  0  0  0  0  0  0
    1.4289   -0.0000    0.0000 C   0  0  0  0  0  0  0  0  0  0  0  0
    2.1434   -0.4125    0.0000 C   0  0  0  0  0  0  0  0  0  0  0  0
    2.1434   -1.2375    0.0000 C   0  0  0  0  0  0  0  0  0  0  0  0
    1.4289   -1.6500    0.0000 C   0  0  0  0  0  0  0  0  0  0  0  0
  1  2  1  0  0  0  0
  2  3  2  0  0  0  0
  3  4  1  0  0  0  0
  4  5  2  0  0  0  0
  5  6  1  0  0  0  0
  6  7  2  0  0  0  0
  2  7  1  0  0  0  0
  5  8  1  0  0  0  0
  8  9  2  0  0  0  0
  8 10  2  0  0  0  0
  8 11  1  0  0  0  0
 11 12  1  0  0  0  0
 11 13  1  0  0  0  0
 11 14  1  0  0  0  0
 14 15  1  0  0  0  0
 15 16  2  0  0  0  0
 16 17  1  0  0  0  0
 17 18  2  0  0  0  0
 18 19  1  0  0  0  0
 19 20  2  0  0  0  0
 15 20  1  0  0  0  0
 20 21  1  0  0  0  0
 21 22  2  0  0  0  0
 22 23  1  0  0  0  0
 23 24  2  0  0  0  0
 19 24  1  0  0  0  0
M  END
> <ID>
CPD_5662

$$$$
CPD_5667
  Mrv1822 09091914012D          

 23 25  0  0  0  0            999 V2000
    0.0000    2.4750    0.0000 N   0  0  0  0  0  0  0  0  0  0  0  0
   -0.7145    2.8875    0.0000 C   0  0  0  0  0  0  0  0  0  0  0  0
   -1.4289    2.4750    0.0000 C   0  0  0  0  0  0  0  0  0  0  0  0
   -1.4289    1.6500    0.0000 O   0  0  0  0  0  0  0  0  0  0  0  0
   -0.7145    1.2375    0.0000 C   0  0  0  0  0  0  0  0  0  0  0  0
   -0.3020    1.9520    0.0000 F   0  0  0  0  0  0  0  0  0  0  0  0
   -1.1270    0.5230    0.0000 F   0  0  0  0  0  0  0  0  0  0  0  0
    0.0000    0.8250    0.0000 C   0  0  0  0  0  0  0  0  0  0  0  0
    0.0000   -0.0000    0.0000 C   0  0  0  0  0  0  0  0  0  0  0  0
   -0.7145   -0.4125    0.0000 C   0  0  0  0  0  0  0  0  0  0  0  0
   -0.7145   -1.2375    0.0000 N   0  0  0  0  0  0  0  0  0  0  0  0
    0.0000   -1.6500    0.0000 C   0  0  0  0  0  0  0  0  0  0  0  0
    0.7145   -1.2375    0.0000 C   0  0  0  0  0  0  0  0  0  0  0  0
    0.7145   -0.4125    0.0000 C   0  0  0  0  0  0  0  0  0  0  0  0
    1.4289   -0.0000    0.0000 C   0  0  0  0  0  0  0  0  0  0  0  0
    2.1434   -0.4125    0.0000 C   0  0  0  0  0  0  0  0  0  0  0  0
    2.1434   -1.2375    0.0000 C   0  0  0  0  0  0  0  0  0  0  0  0
    1.4289   -1.6500    0.0000 C   0  0  0  0  0  0  0  0  0  0  0  0
   -2.1434    2.8875    0.0000 C   0  0  0  0  0  0  0  0  0  0  0  0
   -2.1434    3.7125    0.0000 C   0  0  0  0  0  0  0  0  0  0  0  0
   -2.8579    4.1250    0.0000 F   0  0  0  0  0  0  0  0  0  0  0  0
   -1.4289    4.1250    0.0000 C   0  0  0  0  0  0  0  0  0  0  0  0
   -0.7145    3.7125    0.0000 C   0  0  0  0  0  0  0  0  0  0  0  0
  1  2  1  0  0  0  0
  2  3  2  0  0  0  0
  3  4  1  0  0  0  0
  4  5  1  0  0  0  0
  5  6  1  0  0  0  0
  5  7  1  0  0  0  0
  5  8  1  0  0  0  0
  8  9  1  0  0  0  0
  9 10  2  0  0  0  0
 10 11  1  0  0  0  0
 11 12  2  0  0  0  0
 12 13  1  0  0  0  0
 13 14  2  0  0  0  0
  9 14  1  0  0  0  0
 14 15  1  0  0  0  0
 15 16  2  0  0  0  0
 16 17  1  0  0  0  0
 17 18  2  0  0  0  0
 13 18  1  0  0  0  0
  3 19  1  0  0  0  0
 19 20  2  0  0  0  0
 20 21  1  0  0  0  0
 20 22  1  0  0  0  0
 22 23  2  0  0  0  0
  2 23  1  0  0  0  0
M  END
> <ID>
CPD_5667

$$$$
CPD_5672
  Mrv1822 09091914012D          

 20 22  0  0  0  0            999 V2000
   -3.5724    3.7125    0.0000 N   0  0  0  0  0  0  0  0  0  0  0  0
   -2.8579    3.3000    0.0000 C   0  0  0  0  0  0  0  0  0  0  0  0
   -2.1434    3.7125    0.0000 C   0  0  0  0  0  0  0  0  0  0  0  0
   -1.4289    3.3000    0.0000 C   0  0  0  0  0  0  0  0  0  0  0  0
   -1.4289    2.4750    0.0000 N   0  0  0  0  0  0  0  0  0  0  0  0
   -0.7145    2.0625    0.0000 C   0  0  0  0  0  0  0  0  0  0  0  0
   -0.7145    1.2375    0.0000 C   0  0  0  0  0  0  0  0  0  0  0  0
    0.0000    0.8250    0.0000 C   0  0  0  0  0  0  0  0  0  0  0  0
    0.0000   -0.0000    0.0000 C   0  0  0  0  0  0  0  0  0  0  0  0
   -0.7145   -0.4125    0.0000 C   0  0  0  0  0  0  0  0  0  0  0  0
   -0.7145   -1.2375    0.0000 N   0  0  0  0  0  0  0  0  0  0  0  0
    0.0000   -1.6500    0.0000 C   0  0  0  0  0  0  0  0  0  0  0  0
    0.7145   -1.2375    0.0000 C   0  0  0  0  0  0  0  0  0  0  0  0
    0.7145   -0.4125    0.0000 C   0  0  0  0  0  0  0  0  0  0  0  0
    1.4289   -0.0000    0.0000 C   0  0  0  0  0  0  0  0  0  0  0  0
    2.1434   -0.4125    0.0000 C   0  0  0  0  0  0  0  0  0  0  0  0
    2.1434   -1.2375    0.0000 C   0  0  0  0  0  0  0  0  0  0  0  0
    1.4289   -1.6500    0.0000 C   0  0  0  0  0  0  0  0  0  0  0  0
   -2.1434    2.0625    0.0000 C   0  0  0  0  0  0  0  0  0  0  0  0
   -2.8579    2.4750    0.0000 C   0  0  0  0  0  0  0  0  0  0  0  0
  1  2  1  0  0  0  0
  2  3  1  0  0  0  0
  3  4  1  0  0  0  0
  4  5  1  0  0  0  0
  5  6  1  0  0  0  0
  6  7  1  0  0  0  0
  7  8  1  0  0  0  0
  8  9  1  0  0  0  0
  9 10  2  0  0  0  0
 10 11  1  0  0  0  0
 11 12  2  0  0  0  0
 12 13  1  0  0  0  0
 13 14  2  0  0  0  0
  9 14  1  0  0  0  0
 14 15  1  0  0  0  0
 15 16  2  0  0  0  0
 16 17  1  0  0  0  0
 17 18  2  0  0  0  0
 13 18  1  0  0  0  0
  5 19  1  0  0  0  0
 19 20  1  0  0  0  0
  2 20  1  0  0  0  0
M  END
> <ID>
CPD_5672

$$$$
